O=C(CSCc1ccc(Cl)s1)N1CCC(O)CC1
     RDKit          3D

 18 19  0  0  0  0  0  0  0  0999 V2000
    8.7102   -1.3539   24.2760 O   0  0  0  0  0  0  0  0  0  0  0  0
    9.4334   -2.1203   23.6716 C   0  0  0  0  0  0  0  0  0  0  0  0
   10.3260   -1.7920   22.4941 C   0  0  0  0  0  0  0  0  0  0  0  0
    9.5607   -0.5667   21.3699 S   0  0  0  0  0  0  0  0  0  0  0  0
    7.9641   -1.3976   21.0216 C   0  0  0  0  0  0  0  0  0  0  0  0
    7.1007   -0.5241   20.1671 C   0  0  0  0  0  0  0  0  0  0  0  0
    5.7930   -0.1276   20.3932 C   0  0  0  0  0  0  0  0  0  0  0  0
    5.2841    0.6934   19.3422 C   0  0  0  0  0  0  0  0  0  0  0  0
    6.2234    0.8796   18.3624 C   0  0  0  0  0  0  0  0  0  0  0  0
    6.0491    1.8209   16.9402 Cl  0  0  0  0  0  0  0  0  0  0  0  0
    7.6812    0.0795   18.6678 S   0  0  0  0  0  0  0  0  0  0  0  0
    9.5928   -3.4405   24.2306 N   0  0  0  0  0  0  0  0  0  0  0  0
   10.8197   -3.4856   25.0609 C   0  0  0  0  0  0  0  0  0  0  0  0
   11.0016   -4.9279   25.4571 C   0  0  0  0  0  0  0  0  0  0  0  0
    9.9315   -5.2800   26.4615 C   0  0  0  0  0  0  0  0  0  0  0  0
   10.3887   -4.7677   27.7090 O   0  0  0  0  0  0  0  0  0  0  0  0
    8.5793   -4.6419   26.1747 C   0  0  0  0  0  0  0  0  0  0  0  0
    8.3826   -4.0949   24.7695 C   0  0  0  0  0  0  0  0  0  0  0  0
  1  2  2  0
  2  3  1  0
  2 12  1  0
  3  4  1  0
  4  5  1  0
  5  6  1  0
  6  7  2  0
  7  8  1  0
  8  9  2  0
  9 10  1  0
  9 11  1  0
 11  6  1  0
 12 13  1  0
 13 14  1  0
 14 15  1  0
 15 16  1  0
 15 17  1  0
 17 18  1  0
 18 12  1  0
M  END
>  <TransFSScore>  (1)
0.115601

>  <SuCOS_Score>  (1)
0.364775

>  <FeatureStein>  (1)
0.51392

>  <SCORE.norm>  (1)
-0.778976

>  <Max_SuCOS_Score>  (1)
0.467883

>  <Cum_SuCOS_Score>  (1)
4.880149

>  <TransFSScore_50nM>  (1)
0.019673

>  <TransFSScore_1uM>  (1)
0.214321

>  <TransFSScore_10nM>  (1)
0.013937

>  <TransFSScore_200nM>  (1)
0.214474

>  <TETHERED ATOMS>  (1)
16,15,14,13,12,2,3,18,17

$$$$
O=C(CSCc1ccc(Cl)s1)N1CCC(O)CC1
     RDKit          3D

 18 19  0  0  0  0  0  0  0  0999 V2000
    8.6556   -1.4821   24.1848 O   0  0  0  0  0  0  0  0  0  0  0  0
    9.4105   -2.2377   23.6061 C   0  0  0  0  0  0  0  0  0  0  0  0
   10.3049   -1.9071   22.4307 C   0  0  0  0  0  0  0  0  0  0  0  0
    9.5994   -0.5860   21.3781 S   0  0  0  0  0  0  0  0  0  0  0  0
    7.9391   -1.2879   21.0444 C   0  0  0  0  0  0  0  0  0  0  0  0
    7.1363   -0.3440   20.2058 C   0  0  0  0  0  0  0  0  0  0  0  0
    5.9657    0.3164   20.5408 C   0  0  0  0  0  0  0  0  0  0  0  0
    5.4713    1.1229   19.4718 C   0  0  0  0  0  0  0  0  0  0  0  0
    6.2827    1.0355   18.3714 C   0  0  0  0  0  0  0  0  0  0  0  0
    6.0839    1.8617   16.8824 Cl  0  0  0  0  0  0  0  0  0  0  0  0
    7.6009   -0.0007   18.5886 S   0  0  0  0  0  0  0  0  0  0  0  0
    9.6070   -3.5387   24.1973 N   0  0  0  0  0  0  0  0  0  0  0  0
   10.8253   -3.5239   25.0413 C   0  0  0  0  0  0  0  0  0  0  0  0
   11.0502   -4.9499   25.4730 C   0  0  0  0  0  0  0  0  0  0  0  0
    9.9810   -5.3142   26.4741 C   0  0  0  0  0  0  0  0  0  0  0  0
   10.4070   -4.7584   27.7140 O   0  0  0  0  0  0  0  0  0  0  0  0
    8.6118   -4.7281   26.1583 C   0  0  0  0  0  0  0  0  0  0  0  0
    8.4130   -4.2203   24.7387 C   0  0  0  0  0  0  0  0  0  0  0  0
  1  2  2  0
  2  3  1  0
  2 12  1  0
  3  4  1  0
  4  5  1  0
  5  6  1  0
  6  7  2  0
  7  8  1  0
  8  9  2  0
  9 10  1  0
  9 11  1  0
 11  6  1  0
 12 13  1  0
 13 14  1  0
 14 15  1  0
 15 16  1  0
 15 17  1  0
 17 18  1  0
 18 12  1  0
M  END
>  <TransFSScore>  (2)
0.136081

>  <SuCOS_Score>  (2)
0.348695

>  <FeatureStein>  (2)
0.504294

>  <SCORE.norm>  (2)
-0.77487

>  <Max_SuCOS_Score>  (2)
0.47519

>  <Cum_SuCOS_Score>  (2)
4.82962

>  <TransFSScore_50nM>  (2)
0.015733

>  <TransFSScore_1uM>  (2)
0.249122

>  <TransFSScore_10nM>  (2)
0.008962

>  <TransFSScore_200nM>  (2)
0.270506

>  <TETHERED ATOMS>  (2)
16,15,14,13,12,2,3,18,17

$$$$
OC1CCN(Cc2ccncc2Cl)CC1
     RDKit          3D

 15 16  0  0  0  0  0  0  0  0999 V2000
    9.8920   -6.9866   25.6575 O   0  0  0  0  0  0  0  0  0  0  0  0
    9.7713   -5.6460   25.3844 C   0  0  0  0  0  0  0  0  0  0  0  0
    8.4404   -5.1748   24.9064 C   0  0  0  0  0  0  0  0  0  0  0  0
    8.7756   -4.3066   23.7154 C   0  0  0  0  0  0  0  0  0  0  0  0
    9.9291   -3.3969   24.0004 N   0  0  0  0  0  0  0  0  0  0  0  0
   10.1295   -2.2517   23.1104 C   0  0  0  0  0  0  0  0  0  0  0  0
   11.4852   -1.5921   23.1473 C   0  0  0  0  0  0  0  0  0  0  0  0
   12.4659   -1.9515   22.2021 C   0  0  0  0  0  0  0  0  0  0  0  0
   13.6984   -1.2913   22.1690 C   0  0  0  0  0  0  0  0  0  0  0  0
   13.9521   -0.3101   23.0496 N   0  0  0  0  0  0  0  0  0  0  0  0
   13.0584    0.0658   23.9803 C   0  0  0  0  0  0  0  0  0  0  0  0
   11.8122   -0.5665   24.0500 C   0  0  0  0  0  0  0  0  0  0  0  0
   10.7163   -0.0512   25.2726 Cl  0  0  0  0  0  0  0  0  0  0  0  0
   10.3409   -3.2235   25.4395 C   0  0  0  0  0  0  0  0  0  0  0  0
   10.5820   -4.5971   26.0888 C   0  0  0  0  0  0  0  0  0  0  0  0
  1  2  1  0
  2  3  1  0
  3  4  1  0
  4  5  1  0
  5  6  1  0
  5 14  1  0
  6  7  1  0
  7  8  2  0
  8  9  1  0
  9 10  2  0
 10 11  1  0
 11 12  2  0
 12 13  1  0
 12  7  1  0
 14 15  1  0
 15  2  1  0
M  END
>  <TransFSScore>  (3)
0.132539

>  <SuCOS_Score>  (3)
0.596122

>  <FeatureStein>  (3)
0.500694

>  <SCORE.norm>  (3)
-1.09116

>  <Max_SuCOS_Score>  (3)
0.596122

>  <Cum_SuCOS_Score>  (3)
4.583985

>  <TransFSScore_50nM>  (3)
0.033794

>  <TransFSScore_1uM>  (3)
0.056481

>  <TransFSScore_10nM>  (3)
0.002821

>  <TransFSScore_200nM>  (3)
0.437058

>  <TETHERED ATOMS>  (3)
1,2,3,4,5,6,7,14,15

$$$$
OC1CCN(Cc2ccncc2Cl)CC1
     RDKit          3D

 15 16  0  0  0  0  0  0  0  0999 V2000
    9.9227   -6.9551   25.6792 O   0  0  0  0  0  0  0  0  0  0  0  0
    9.8102   -5.6106   25.4219 C   0  0  0  0  0  0  0  0  0  0  0  0
    8.4723   -5.1196   24.9853 C   0  0  0  0  0  0  0  0  0  0  0  0
    8.7845   -4.2441   23.7935 C   0  0  0  0  0  0  0  0  0  0  0  0
    9.9561   -3.3505   24.0546 N   0  0  0  0  0  0  0  0  0  0  0  0
   10.1453   -2.1993   23.1698 C   0  0  0  0  0  0  0  0  0  0  0  0
   11.5121   -1.5620   23.1675 C   0  0  0  0  0  0  0  0  0  0  0  0
   12.4491   -1.9157   22.1770 C   0  0  0  0  0  0  0  0  0  0  0  0
   13.6901   -1.2743   22.1097 C   0  0  0  0  0  0  0  0  0  0  0  0
   13.9942   -0.3170   23.0005 N   0  0  0  0  0  0  0  0  0  0  0  0
   13.1437    0.0522   23.9734 C   0  0  0  0  0  0  0  0  0  0  0  0
   11.8910   -0.5618   24.0786 C   0  0  0  0  0  0  0  0  0  0  0  0
   10.8522   -0.0566   25.3540 Cl  0  0  0  0  0  0  0  0  0  0  0  0
   10.4096   -3.1955   25.4831 C   0  0  0  0  0  0  0  0  0  0  0  0
   10.6525   -4.5777   26.1130 C   0  0  0  0  0  0  0  0  0  0  0  0
  1  2  1  0
  2  3  1  0
  3  4  1  0
  4  5  1  0
  5  6  1  0
  5 14  1  0
  6  7  1  0
  7  8  2  0
  8  9  1  0
  9 10  2  0
 10 11  1  0
 11 12  2  0
 12 13  1  0
 12  7  1  0
 14 15  1  0
 15  2  1  0
M  END
>  <TransFSScore>  (4)
0.128863

>  <SuCOS_Score>  (4)
0.600829

>  <FeatureStein>  (4)
0.506304

>  <SCORE.norm>  (4)
-1.09044

>  <Max_SuCOS_Score>  (4)
0.600829

>  <Cum_SuCOS_Score>  (4)
4.556051

>  <TransFSScore_50nM>  (4)
0.033535

>  <TransFSScore_1uM>  (4)
0.054845

>  <TransFSScore_10nM>  (4)
0.002991

>  <TransFSScore_200nM>  (4)
0.424081

>  <TETHERED ATOMS>  (4)
1,2,3,4,5,6,7,14,15

$$$$
OC1CCN(Cc2ccncc2Cl)CC1
     RDKit          3D

 15 16  0  0  0  0  0  0  0  0999 V2000
    9.8756   -6.9977   25.6161 O   0  0  0  0  0  0  0  0  0  0  0  0
    9.7878   -5.6470   25.3833 C   0  0  0  0  0  0  0  0  0  0  0  0
    8.4478   -5.1164   25.0027 C   0  0  0  0  0  0  0  0  0  0  0  0
    8.7392   -4.2299   23.8137 C   0  0  0  0  0  0  0  0  0  0  0  0
    9.9414   -3.3695   24.0460 N   0  0  0  0  0  0  0  0  0  0  0  0
   10.1276   -2.2093   23.1724 C   0  0  0  0  0  0  0  0  0  0  0  0
   11.4943   -1.5715   23.1728 C   0  0  0  0  0  0  0  0  0  0  0  0
   12.4350   -1.9287   22.1871 C   0  0  0  0  0  0  0  0  0  0  0  0
   13.6761   -1.2871   22.1219 C   0  0  0  0  0  0  0  0  0  0  0  0
   13.9765   -0.3263   23.0102 N   0  0  0  0  0  0  0  0  0  0  0  0
   13.1224    0.0463   23.9786 C   0  0  0  0  0  0  0  0  0  0  0  0
   11.8694   -0.5678   24.0814 C   0  0  0  0  0  0  0  0  0  0  0  0
   10.8258   -0.0581   25.3512 Cl  0  0  0  0  0  0  0  0  0  0  0  0
   10.4492   -3.2485   25.4594 C   0  0  0  0  0  0  0  0  0  0  0  0
   10.6797   -4.6462   26.0592 C   0  0  0  0  0  0  0  0  0  0  0  0
  1  2  1  0
  2  3  1  0
  3  4  1  0
  4  5  1  0
  5  6  1  0
  5 14  1  0
  6  7  1  0
  7  8  2  0
  8  9  1  0
  9 10  2  0
 10 11  1  0
 11 12  2  0
 12 13  1  0
 12  7  1  0
 14 15  1  0
 15  2  1  0
M  END
>  <TransFSScore>  (5)
0.13058

>  <SuCOS_Score>  (5)
0.601319

>  <FeatureStein>  (5)
0.503685

>  <SCORE.norm>  (5)
-1.08882

>  <Max_SuCOS_Score>  (5)
0.601319

>  <Cum_SuCOS_Score>  (5)
4.553651

>  <TransFSScore_50nM>  (5)
0.033111

>  <TransFSScore_1uM>  (5)
0.055612

>  <TransFSScore_10nM>  (5)
0.002855

>  <TransFSScore_200nM>  (5)
0.43074

>  <TETHERED ATOMS>  (5)
1,2,3,4,5,6,7,14,15

$$$$
OC1CCN(Cc2ccncc2Cl)CC1
     RDKit          3D

 15 16  0  0  0  0  0  0  0  0999 V2000
    9.8971   -6.9573   25.6714 O   0  0  0  0  0  0  0  0  0  0  0  0
    9.7924   -5.6109   25.4208 C   0  0  0  0  0  0  0  0  0  0  0  0
    8.4514   -5.1062   25.0099 C   0  0  0  0  0  0  0  0  0  0  0  0
    8.7504   -4.2292   23.8157 C   0  0  0  0  0  0  0  0  0  0  0  0
    9.9346   -3.3473   24.0590 N   0  0  0  0  0  0  0  0  0  0  0  0
   10.1185   -2.1946   23.1750 C   0  0  0  0  0  0  0  0  0  0  0  0
   11.4839   -1.5542   23.1693 C   0  0  0  0  0  0  0  0  0  0  0  0
   12.4218   -1.9113   22.1809 C   0  0  0  0  0  0  0  0  0  0  0  0
   13.6614   -1.2675   22.1101 C   0  0  0  0  0  0  0  0  0  0  0  0
   13.9631   -0.3046   22.9956 N   0  0  0  0  0  0  0  0  0  0  0  0
   13.1118    0.0681   23.9664 C   0  0  0  0  0  0  0  0  0  0  0  0
   11.8603   -0.5481   24.0748 C   0  0  0  0  0  0  0  0  0  0  0  0
   10.8203   -0.0381   25.3474 Cl  0  0  0  0  0  0  0  0  0  0  0  0
   10.4148   -3.2016   25.4798 C   0  0  0  0  0  0  0  0  0  0  0  0
   10.6562   -4.5883   26.1004 C   0  0  0  0  0  0  0  0  0  0  0  0
  1  2  1  0
  2  3  1  0
  3  4  1  0
  4  5  1  0
  5  6  1  0
  5 14  1  0
  6  7  1  0
  7  8  2  0
  8  9  1  0
  9 10  2  0
 10 11  1  0
 11 12  2  0
 12 13  1  0
 12  7  1  0
 14 15  1  0
 15  2  1  0
M  END
>  <TransFSScore>  (6)
0.129658

>  <SuCOS_Score>  (6)
0.609105

>  <FeatureStein>  (6)
0.511946

>  <SCORE.norm>  (6)
-1.08548

>  <Max_SuCOS_Score>  (6)
0.609105

>  <Cum_SuCOS_Score>  (6)
4.591806

>  <TransFSScore_50nM>  (6)
0.032734

>  <TransFSScore_1uM>  (6)
0.055799

>  <TransFSScore_10nM>  (6)
0.003021

>  <TransFSScore_200nM>  (6)
0.427076

>  <TETHERED ATOMS>  (6)
1,2,3,4,5,6,7,14,15

$$$$
OC1CCN(Cc2ccncc2Cl)CC1
     RDKit          3D

 15 16  0  0  0  0  0  0  0  0999 V2000
    9.8446   -6.9657   25.5484 O   0  0  0  0  0  0  0  0  0  0  0  0
    9.7571   -5.6129   25.3277 C   0  0  0  0  0  0  0  0  0  0  0  0
    8.4202   -5.0805   24.9390 C   0  0  0  0  0  0  0  0  0  0  0  0
    8.7220   -4.1822   23.7615 C   0  0  0  0  0  0  0  0  0  0  0  0
    9.9206   -3.3225   24.0138 N   0  0  0  0  0  0  0  0  0  0  0  0
   10.1138   -2.1537   23.1533 C   0  0  0  0  0  0  0  0  0  0  0  0
   11.4858   -1.5277   23.1563 C   0  0  0  0  0  0  0  0  0  0  0  0
   12.4131   -1.8659   22.1513 C   0  0  0  0  0  0  0  0  0  0  0  0
   13.6589   -1.2332   22.0902 C   0  0  0  0  0  0  0  0  0  0  0  0
   13.9769   -0.2993   23.0008 N   0  0  0  0  0  0  0  0  0  0  0  0
   13.1362    0.0540   23.9880 C   0  0  0  0  0  0  0  0  0  0  0  0
   11.8791   -0.5521   24.0876 C   0  0  0  0  0  0  0  0  0  0  0  0
   10.8533   -0.0682   25.3817 Cl  0  0  0  0  0  0  0  0  0  0  0  0
   10.4143   -3.2144   25.4333 C   0  0  0  0  0  0  0  0  0  0  0  0
   10.6409   -4.6175   26.0219 C   0  0  0  0  0  0  0  0  0  0  0  0
  1  2  1  0
  2  3  1  0
  3  4  1  0
  4  5  1  0
  5  6  1  0
  5 14  1  0
  6  7  1  0
  7  8  2  0
  8  9  1  0
  9 10  2  0
 10 11  1  0
 11 12  2  0
 12 13  1  0
 12  7  1  0
 14 15  1  0
 15  2  1  0
M  END
>  <TransFSScore>  (7)
0.132017

>  <SuCOS_Score>  (7)
0.604307

>  <FeatureStein>  (7)
0.513525

>  <SCORE.norm>  (7)
-1.08507

>  <Max_SuCOS_Score>  (7)
0.604307

>  <Cum_SuCOS_Score>  (7)
4.586085

>  <TransFSScore_50nM>  (7)
0.030792

>  <TransFSScore_1uM>  (7)
0.054056

>  <TransFSScore_10nM>  (7)
0.003001

>  <TransFSScore_200nM>  (7)
0.44022

>  <TETHERED ATOMS>  (7)
1,2,3,4,5,6,7,14,15

$$$$
OC1CCN(Cc2ccncc2Cl)CC1
     RDKit          3D

 15 16  0  0  0  0  0  0  0  0999 V2000
    9.9040   -6.9493   25.7159 O   0  0  0  0  0  0  0  0  0  0  0  0
    9.7816   -5.6091   25.4411 C   0  0  0  0  0  0  0  0  0  0  0  0
    8.4470   -5.1383   24.9729 C   0  0  0  0  0  0  0  0  0  0  0  0
    8.7729   -4.2726   23.7775 C   0  0  0  0  0  0  0  0  0  0  0  0
    9.9291   -3.3629   24.0513 N   0  0  0  0  0  0  0  0  0  0  0  0
   10.1227   -2.2196   23.1574 C   0  0  0  0  0  0  0  0  0  0  0  0
   11.4817   -1.5660   23.1755 C   0  0  0  0  0  0  0  0  0  0  0  0
   12.4419   -1.9177   22.2067 C   0  0  0  0  0  0  0  0  0  0  0  0
   13.6764   -1.2622   22.1572 C   0  0  0  0  0  0  0  0  0  0  0  0
   13.9517   -0.2930   23.0446 N   0  0  0  0  0  0  0  0  0  0  0  0
   13.0782    0.0750   23.9974 C   0  0  0  0  0  0  0  0  0  0  0  0
   11.8310   -0.5530   24.0841 C   0  0  0  0  0  0  0  0  0  0  0  0
   10.7617   -0.0483   25.3344 Cl  0  0  0  0  0  0  0  0  0  0  0  0
   10.3525   -3.1868   25.4866 C   0  0  0  0  0  0  0  0  0  0  0  0
   10.5984   -4.5591   26.1368 C   0  0  0  0  0  0  0  0  0  0  0  0
  1  2  1  0
  2  3  1  0
  3  4  1  0
  4  5  1  0
  5  6  1  0
  5 14  1  0
  6  7  1  0
  7  8  2  0
  8  9  1  0
  9 10  2  0
 10 11  1  0
 11 12  2  0
 12 13  1  0
 12  7  1  0
 14 15  1  0
 15  2  1  0
M  END
>  <TransFSScore>  (8)
0.127741

>  <SuCOS_Score>  (8)
0.607613

>  <FeatureStein>  (8)
0.511516

>  <SCORE.norm>  (8)
-1.08506

>  <Max_SuCOS_Score>  (8)
0.607613

>  <Cum_SuCOS_Score>  (8)
4.592513

>  <TransFSScore_50nM>  (8)
0.032504

>  <TransFSScore_1uM>  (8)
0.055765

>  <TransFSScore_10nM>  (8)
0.003056

>  <TransFSScore_200nM>  (8)
0.419639

>  <TETHERED ATOMS>  (8)
1,2,3,4,5,6,7,14,15

$$$$
OC1CCN(Cc2ccncc2Cl)CC1
     RDKit          3D

 15 16  0  0  0  0  0  0  0  0999 V2000
    9.9510   -6.9199   25.7256 O   0  0  0  0  0  0  0  0  0  0  0  0
    9.7736   -5.5983   25.3962 C   0  0  0  0  0  0  0  0  0  0  0  0
    8.4711   -5.2304   24.7718 C   0  0  0  0  0  0  0  0  0  0  0  0
    8.8700   -4.3749   23.5912 C   0  0  0  0  0  0  0  0  0  0  0  0
    9.9282   -3.3828   23.9588 N   0  0  0  0  0  0  0  0  0  0  0  0
   10.1449   -2.2517   23.0545 C   0  0  0  0  0  0  0  0  0  0  0  0
   11.5009   -1.5933   23.1036 C   0  0  0  0  0  0  0  0  0  0  0  0
   12.4927   -1.9603   22.1732 C   0  0  0  0  0  0  0  0  0  0  0  0
   13.7263   -1.3017   22.1507 C   0  0  0  0  0  0  0  0  0  0  0  0
   13.9702   -0.3147   23.0275 N   0  0  0  0  0  0  0  0  0  0  0  0
   13.0655    0.0687   23.9444 C   0  0  0  0  0  0  0  0  0  0  0  0
   11.8178   -0.5617   24.0032 C   0  0  0  0  0  0  0  0  0  0  0  0
   10.7075   -0.0367   25.2085 Cl  0  0  0  0  0  0  0  0  0  0  0  0
   10.1793   -3.1426   25.4250 C   0  0  0  0  0  0  0  0  0  0  0  0
   10.4400   -4.4785   26.1417 C   0  0  0  0  0  0  0  0  0  0  0  0
  1  2  1  0
  2  3  1  0
  3  4  1  0
  4  5  1  0
  5  6  1  0
  5 14  1  0
  6  7  1  0
  7  8  2  0
  8  9  1  0
  9 10  2  0
 10 11  1  0
 11 12  2  0
 12 13  1  0
 12  7  1  0
 14 15  1  0
 15  2  1  0
M  END
>  <TransFSScore>  (9)
0.131153

>  <SuCOS_Score>  (9)
0.587152

>  <FeatureStein>  (9)
0.500719

>  <SCORE.norm>  (9)
-1.0813

>  <Max_SuCOS_Score>  (9)
0.587152

>  <Cum_SuCOS_Score>  (9)
4.600437

>  <TransFSScore_50nM>  (9)
0.034252

>  <TransFSScore_1uM>  (9)
0.055398

>  <TransFSScore_10nM>  (9)
0.002749

>  <TransFSScore_200nM>  (9)
0.432214

>  <TETHERED ATOMS>  (9)
1,2,3,4,5,6,7,14,15

$$$$
OC1CCN(Cc2ccncc2Cl)CC1
     RDKit          3D

 15 16  0  0  0  0  0  0  0  0999 V2000
    9.6963   -6.9754   25.5616 O   0  0  0  0  0  0  0  0  0  0  0  0
    9.7324   -5.6163   25.3666 C   0  0  0  0  0  0  0  0  0  0  0  0
    8.4210   -4.9242   25.2149 C   0  0  0  0  0  0  0  0  0  0  0  0
    8.6230   -4.0367   24.0082 C   0  0  0  0  0  0  0  0  0  0  0  0
    9.9396   -3.3271   24.0569 N   0  0  0  0  0  0  0  0  0  0  0  0
   10.1206   -2.1667   23.1826 C   0  0  0  0  0  0  0  0  0  0  0  0
   11.4947   -1.5458   23.1541 C   0  0  0  0  0  0  0  0  0  0  0  0
   12.4022   -1.8975   22.1357 C   0  0  0  0  0  0  0  0  0  0  0  0
   13.6489   -1.2702   22.0454 C   0  0  0  0  0  0  0  0  0  0  0  0
   13.9869   -0.3284   22.9405 N   0  0  0  0  0  0  0  0  0  0  0  0
   13.1658    0.0380   23.9393 C   0  0  0  0  0  0  0  0  0  0  0  0
   11.9086   -0.5623   24.0681 C   0  0  0  0  0  0  0  0  0  0  0  0
   10.9084   -0.0616   25.3759 Cl  0  0  0  0  0  0  0  0  0  0  0  0
   10.6752   -3.3127   25.3719 C   0  0  0  0  0  0  0  0  0  0  0  0
   10.8315   -4.7470   25.9053 C   0  0  0  0  0  0  0  0  0  0  0  0
  1  2  1  0
  2  3  1  0
  3  4  1  0
  4  5  1  0
  5  6  1  0
  5 14  1  0
  6  7  1  0
  7  8  2  0
  8  9  1  0
  9 10  2  0
 10 11  1  0
 11 12  2  0
 12 13  1  0
 12  7  1  0
 14 15  1  0
 15  2  1  0
M  END
>  <TransFSScore>  (10)
0.123852

>  <SuCOS_Score>  (10)
0.607655

>  <FeatureStein>  (10)
0.508527

>  <SCORE.norm>  (10)
-1.05304

>  <Max_SuCOS_Score>  (10)
0.607655

>  <Cum_SuCOS_Score>  (10)
4.575133

>  <TransFSScore_50nM>  (10)
0.027445

>  <TransFSScore_1uM>  (10)
0.050424

>  <TransFSScore_10nM>  (10)
0.003203

>  <TransFSScore_200nM>  (10)
0.414335

>  <TETHERED ATOMS>  (10)
1,2,3,4,5,6,7,14,15

$$$$
OC1CCN(Cc2ccncc2Cl)CC1
     RDKit          3D

 15 16  0  0  0  0  0  0  0  0999 V2000
    9.8705   -6.8806   25.5339 O   0  0  0  0  0  0  0  0  0  0  0  0
    9.7352   -5.5401   25.2675 C   0  0  0  0  0  0  0  0  0  0  0  0
    8.4185   -5.0908   24.7324 C   0  0  0  0  0  0  0  0  0  0  0  0
    8.7907   -4.2043   23.5661 C   0  0  0  0  0  0  0  0  0  0  0  0
    9.9110   -3.2747   23.9125 N   0  0  0  0  0  0  0  0  0  0  0  0
   10.1289   -2.1170   23.0430 C   0  0  0  0  0  0  0  0  0  0  0  0
   11.5102   -1.5115   23.0520 C   0  0  0  0  0  0  0  0  0  0  0  0
   12.4358   -1.8616   22.0496 C   0  0  0  0  0  0  0  0  0  0  0  0
   13.6911   -1.2475   21.9941 C   0  0  0  0  0  0  0  0  0  0  0  0
   14.0198   -0.3202   22.9077 N   0  0  0  0  0  0  0  0  0  0  0  0
   13.1810    0.0438   23.8926 C   0  0  0  0  0  0  0  0  0  0  0  0
   11.9147   -0.5436   23.9866 C   0  0  0  0  0  0  0  0  0  0  0  0
   10.8916   -0.0470   25.2781 Cl  0  0  0  0  0  0  0  0  0  0  0  0
   10.2521   -3.1074   25.3706 C   0  0  0  0  0  0  0  0  0  0  0  0
   10.4909   -4.4821   26.0182 C   0  0  0  0  0  0  0  0  0  0  0  0
  1  2  1  0
  2  3  1  0
  3  4  1  0
  4  5  1  0
  5  6  1  0
  5 14  1  0
  6  7  1  0
  7  8  2  0
  8  9  1  0
  9 10  2  0
 10 11  1  0
 11 12  2  0
 12 13  1  0
 12  7  1  0
 14 15  1  0
 15  2  1  0
M  END
>  <TransFSScore>  (11)
0.130012

>  <SuCOS_Score>  (11)
0.588193

>  <FeatureStein>  (11)
0.509804

>  <SCORE.norm>  (11)
-1.02864

>  <Max_SuCOS_Score>  (11)
0.588193

>  <Cum_SuCOS_Score>  (11)
4.635903

>  <TransFSScore_50nM>  (11)
0.030963

>  <TransFSScore_1uM>  (11)
0.05039

>  <TransFSScore_10nM>  (11)
0.002981

>  <TransFSScore_200nM>  (11)
0.435715

>  <TETHERED ATOMS>  (11)
1,2,3,4,5,6,7,14,15

$$$$
OC1CCN(Cc2ccncc2Cl)CC1
     RDKit          3D

 15 16  0  0  0  0  0  0  0  0999 V2000
    9.7952   -6.8769   25.5501 O   0  0  0  0  0  0  0  0  0  0  0  0
    9.6660   -5.5372   25.2761 C   0  0  0  0  0  0  0  0  0  0  0  0
    8.3570   -5.0878   24.7226 C   0  0  0  0  0  0  0  0  0  0  0  0
    8.7456   -4.2072   23.5571 C   0  0  0  0  0  0  0  0  0  0  0  0
    9.8633   -3.2783   23.9135 N   0  0  0  0  0  0  0  0  0  0  0  0
   10.0945   -2.1249   23.0416 C   0  0  0  0  0  0  0  0  0  0  0  0
   11.4724   -1.5127   23.0765 C   0  0  0  0  0  0  0  0  0  0  0  0
   12.4222   -1.8673   22.0987 C   0  0  0  0  0  0  0  0  0  0  0  0
   13.6756   -1.2477   22.0662 C   0  0  0  0  0  0  0  0  0  0  0  0
   13.9792   -0.3107   22.9785 N   0  0  0  0  0  0  0  0  0  0  0  0
   13.1165    0.0581   23.9408 C   0  0  0  0  0  0  0  0  0  0  0  0
   11.8510   -0.5345   24.0113 C   0  0  0  0  0  0  0  0  0  0  0  0
   10.7965   -0.0312   25.2746 Cl  0  0  0  0  0  0  0  0  0  0  0  0
   10.1865   -3.1051   25.3750 C   0  0  0  0  0  0  0  0  0  0  0  0
   10.4144   -4.4775   26.0315 C   0  0  0  0  0  0  0  0  0  0  0  0
  1  2  1  0
  2  3  1  0
  3  4  1  0
  4  5  1  0
  5  6  1  0
  5 14  1  0
  6  7  1  0
  7  8  2  0
  8  9  1  0
  9 10  2  0
 10 11  1  0
 11 12  2  0
 12 13  1  0
 12  7  1  0
 14 15  1  0
 15  2  1  0
M  END
>  <TransFSScore>  (12)
0.127318

>  <SuCOS_Score>  (12)
0.597412

>  <FeatureStein>  (12)
0.520601

>  <SCORE.norm>  (12)
-1.02827

>  <Max_SuCOS_Score>  (12)
0.597412

>  <Cum_SuCOS_Score>  (12)
4.676421

>  <TransFSScore_50nM>  (12)
0.028271

>  <TransFSScore_1uM>  (12)
0.052636

>  <TransFSScore_10nM>  (12)
0.003104

>  <TransFSScore_200nM>  (12)
0.425262

>  <TETHERED ATOMS>  (12)
1,2,3,4,5,6,7,14,15

$$$$
Cc1cncc(CN2CCC(O)CC2)n1
     RDKit          3D

 15 16  0  0  0  0  0  0  0  0999 V2000
   13.7599   -1.5786   21.6522 C   0  0  0  0  0  0  0  0  0  0  0  0
   12.7241   -1.1515   22.6458 C   0  0  0  0  0  0  0  0  0  0  0  0
   12.9311   -0.0612   23.5021 C   0  0  0  0  0  0  0  0  0  0  0  0
   11.9752    0.2657   24.3915 N   0  0  0  0  0  0  0  0  0  0  0  0
   10.8186   -0.4227   24.4868 C   0  0  0  0  0  0  0  0  0  0  0  0
   10.5806   -1.5235   23.6289 C   0  0  0  0  0  0  0  0  0  0  0  0
    9.3355   -2.3805   23.7541 C   0  0  0  0  0  0  0  0  0  0  0  0
    9.4208   -3.5914   24.5776 N   0  0  0  0  0  0  0  0  0  0  0  0
    8.2368   -4.5156   24.5897 C   0  0  0  0  0  0  0  0  0  0  0  0
    8.2893   -5.4802   25.7484 C   0  0  0  0  0  0  0  0  0  0  0  0
    9.6985   -5.9671   25.7331 C   0  0  0  0  0  0  0  0  0  0  0  0
    9.8796   -7.3248   25.7935 O   0  0  0  0  0  0  0  0  0  0  0  0
   10.7062   -4.9712   26.2291 C   0  0  0  0  0  0  0  0  0  0  0  0
   10.2792   -3.5457   25.8321 C   0  0  0  0  0  0  0  0  0  0  0  0
   11.5616   -1.8480   22.7404 N   0  0  0  0  0  0  0  0  0  0  0  0
  1  2  1  0
  2  3  2  0
  3  4  1  0
  4  5  2  0
  5  6  1  0
  6  7  1  0
  6 15  2  0
  7  8  1  0
  8  9  1  0
  9 10  1  0
 10 11  1  0
 11 12  1  0
 11 13  1  0
 13 14  1  0
 14  8  1  0
 15  2  1  0
M  END
>  <TransFSScore>  (13)
0.102931

>  <SuCOS_Score>  (13)
0.541002

>  <FeatureStein>  (13)
0.56556

>  <SCORE.norm>  (13)
-1.01564

>  <Max_SuCOS_Score>  (13)
0.550913

>  <Cum_SuCOS_Score>  (13)
4.62821

>  <TransFSScore_50nM>  (13)
0.053896

>  <TransFSScore_1uM>  (13)
0.053937

>  <TransFSScore_10nM>  (13)
0.034105

>  <TransFSScore_200nM>  (13)
0.269785

>  <TETHERED ATOMS>  (13)
12,11,10,9,8,7,6,14,13

$$$$
Cc1cncc(CN2CCC(O)CC2)n1
     RDKit          3D

 15 16  0  0  0  0  0  0  0  0999 V2000
   13.7406   -1.6236   21.6701 C   0  0  0  0  0  0  0  0  0  0  0  0
   12.7103   -1.1796   22.6619 C   0  0  0  0  0  0  0  0  0  0  0  0
   12.9255   -0.0800   23.5042 C   0  0  0  0  0  0  0  0  0  0  0  0
   11.9742    0.2622   24.3929 N   0  0  0  0  0  0  0  0  0  0  0  0
   10.8146   -0.4195   24.5005 C   0  0  0  0  0  0  0  0  0  0  0  0
   10.5685   -1.5294   23.6567 C   0  0  0  0  0  0  0  0  0  0  0  0
    9.3198   -2.3789   23.7965 C   0  0  0  0  0  0  0  0  0  0  0  0
    9.4127   -3.6008   24.6028 N   0  0  0  0  0  0  0  0  0  0  0  0
    8.2234   -4.5179   24.6251 C   0  0  0  0  0  0  0  0  0  0  0  0
    8.2913   -5.4976   25.7703 C   0  0  0  0  0  0  0  0  0  0  0  0
    9.6968   -5.9927   25.7226 C   0  0  0  0  0  0  0  0  0  0  0  0
    9.8705   -7.3522   25.7623 O   0  0  0  0  0  0  0  0  0  0  0  0
   10.7197   -5.0093   26.2125 C   0  0  0  0  0  0  0  0  0  0  0  0
   10.2944   -3.5764   25.8417 C   0  0  0  0  0  0  0  0  0  0  0  0
   11.5449   -1.8693   22.7689 N   0  0  0  0  0  0  0  0  0  0  0  0
  1  2  1  0
  2  3  2  0
  3  4  1  0
  4  5  2  0
  5  6  1  0
  6  7  1  0
  6 15  2  0
  7  8  1  0
  8  9  1  0
  9 10  1  0
 10 11  1  0
 11 12  1  0
 11 13  1  0
 13 14  1  0
 14  8  1  0
 15  2  1  0
M  END
>  <TransFSScore>  (14)
0.105613

>  <SuCOS_Score>  (14)
0.538412

>  <FeatureStein>  (14)
0.560646

>  <SCORE.norm>  (14)
-1.01434

>  <Max_SuCOS_Score>  (14)
0.549551

>  <Cum_SuCOS_Score>  (14)
4.607091

>  <TransFSScore_50nM>  (14)
0.055102

>  <TransFSScore_1uM>  (14)
0.053849

>  <TransFSScore_10nM>  (14)
0.035099

>  <TransFSScore_200nM>  (14)
0.278402

>  <TETHERED ATOMS>  (14)
12,11,10,9,8,7,6,14,13

$$$$
Cc1nnsc1CN1CCC(O)CC1
     RDKit          3D

 14 15  0  0  0  0  0  0  0  0999 V2000
   11.0145   -0.2360   25.6223 C   0  0  0  0  0  0  0  0  0  0  0  0
   11.6490   -0.7122   24.3564 C   0  0  0  0  0  0  0  0  0  0  0  0
   12.8703   -0.2361   23.9960 N   0  0  0  0  0  0  0  0  0  0  0  0
   13.2852   -0.6633   22.7777 N   0  0  0  0  0  0  0  0  0  0  0  0
   12.1834   -1.7704   22.0530 S   0  0  0  0  0  0  0  0  0  0  0  0
   11.1107   -1.6224   23.4339 C   0  0  0  0  0  0  0  0  0  0  0  0
    9.7945   -2.3265   23.4309 C   0  0  0  0  0  0  0  0  0  0  0  0
    9.6927   -3.5254   24.2709 N   0  0  0  0  0  0  0  0  0  0  0  0
    8.5313   -4.4399   24.0255 C   0  0  0  0  0  0  0  0  0  0  0  0
    8.3168   -5.3918   25.1804 C   0  0  0  0  0  0  0  0  0  0  0  0
    9.6921   -5.8623   25.5110 C   0  0  0  0  0  0  0  0  0  0  0  0
    9.8609   -7.2150   25.6783 O   0  0  0  0  0  0  0  0  0  0  0  0
   10.5434   -4.8423   26.2110 C   0  0  0  0  0  0  0  0  0  0  0  0
   10.2200   -3.4339   25.6795 C   0  0  0  0  0  0  0  0  0  0  0  0
  1  2  1  0
  2  3  1  0
  3  4  2  0
  4  5  1  0
  5  6  1  0
  6  7  1  0
  6  2  2  0
  7  8  1  0
  8  9  1  0
  9 10  1  0
 10 11  1  0
 11 12  1  0
 11 13  1  0
 13 14  1  0
 14  8  1  0
M  END
>  <TransFSScore>  (15)
0.099224

>  <SuCOS_Score>  (15)
0.601366

>  <FeatureStein>  (15)
0.49284

>  <SCORE.norm>  (15)
-0.992956

>  <Max_SuCOS_Score>  (15)
0.601366

>  <Cum_SuCOS_Score>  (15)
4.360394

>  <TransFSScore_50nM>  (15)
0.005817

>  <TransFSScore_1uM>  (15)
0.014935

>  <TransFSScore_10nM>  (15)
0.049917

>  <TransFSScore_200nM>  (15)
0.326227

>  <TETHERED ATOMS>  (15)
12,11,10,9,8,7,6,14,13

$$$$
COc1cncc(CN2CCC(O)CC2)c1
     RDKit          3D

 16 17  0  0  0  0  0  0  0  0999 V2000
   13.9734   -1.6022   20.5540 C   0  0  0  0  0  0  0  0  0  0  0  0
   13.3148   -2.2763   21.6256 O   0  0  0  0  0  0  0  0  0  0  0  0
   12.7917   -1.5192   22.6289 C   0  0  0  0  0  0  0  0  0  0  0  0
   13.3178   -0.3429   23.1455 C   0  0  0  0  0  0  0  0  0  0  0  0
   12.6757    0.2941   24.1420 N   0  0  0  0  0  0  0  0  0  0  0  0
   11.5285   -0.1611   24.6816 C   0  0  0  0  0  0  0  0  0  0  0  0
   10.9511   -1.3494   24.2202 C   0  0  0  0  0  0  0  0  0  0  0  0
    9.6346   -1.8523   24.7426 C   0  0  0  0  0  0  0  0  0  0  0  0
    9.5076   -3.2994   24.9472 N   0  0  0  0  0  0  0  0  0  0  0  0
   10.3075   -3.9428   26.0268 C   0  0  0  0  0  0  0  0  0  0  0  0
   10.6446   -5.3734   25.6824 C   0  0  0  0  0  0  0  0  0  0  0  0
    9.4065   -6.1623   25.3251 C   0  0  0  0  0  0  0  0  0  0  0  0
    8.6889   -6.3833   26.5315 O   0  0  0  0  0  0  0  0  0  0  0  0
    8.4983   -5.4342   24.3417 C   0  0  0  0  0  0  0  0  0  0  0  0
    9.1098   -4.1486   23.7878 C   0  0  0  0  0  0  0  0  0  0  0  0
   11.5995   -2.0101   23.1668 C   0  0  0  0  0  0  0  0  0  0  0  0
  1  2  1  0
  2  3  1  0
  3  4  2  0
  4  5  1  0
  5  6  2  0
  6  7  1  0
  7  8  1  0
  7 16  2  0
  8  9  1  0
  9 10  1  0
 10 11  1  0
 11 12  1  0
 12 13  1  0
 12 14  1  0
 14 15  1  0
 15  9  1  0
 16  3  1  0
M  END
>  <TransFSScore>  (16)
0.099239

>  <SuCOS_Score>  (16)
0.595007

>  <FeatureStein>  (16)
0.519628

>  <SCORE.norm>  (16)
-0.887341

>  <Max_SuCOS_Score>  (16)
0.595007

>  <Cum_SuCOS_Score>  (16)
4.575389

>  <TransFSScore_50nM>  (16)
0.010421

>  <TransFSScore_1uM>  (16)
0.045715

>  <TransFSScore_10nM>  (16)
0.009508

>  <TransFSScore_200nM>  (16)
0.33131

>  <TETHERED ATOMS>  (16)
13,12,11,10,9,8,7,15,14

$$$$
COc1cncc(CN2CCC(O)CC2)c1
     RDKit          3D

 16 17  0  0  0  0  0  0  0  0999 V2000
   13.9596   -1.5710   20.6337 C   0  0  0  0  0  0  0  0  0  0  0  0
   13.1789   -2.2293   21.6305 O   0  0  0  0  0  0  0  0  0  0  0  0
   12.6952   -1.4798   22.6589 C   0  0  0  0  0  0  0  0  0  0  0  0
   13.2444   -0.3105   23.1673 C   0  0  0  0  0  0  0  0  0  0  0  0
   12.6410    0.3195   24.1921 N   0  0  0  0  0  0  0  0  0  0  0  0
   11.5120   -0.1364   24.7682 C   0  0  0  0  0  0  0  0  0  0  0  0
   10.9136   -1.3181   24.3167 C   0  0  0  0  0  0  0  0  0  0  0  0
    9.6144   -1.8209   24.8812 C   0  0  0  0  0  0  0  0  0  0  0  0
    9.4949   -3.2677   25.0920 N   0  0  0  0  0  0  0  0  0  0  0  0
   10.3047   -3.9038   26.1685 C   0  0  0  0  0  0  0  0  0  0  0  0
   10.6454   -5.3342   25.8270 C   0  0  0  0  0  0  0  0  0  0  0  0
    9.4082   -6.1296   25.4810 C   0  0  0  0  0  0  0  0  0  0  0  0
    8.6997   -6.3491   26.6930 O   0  0  0  0  0  0  0  0  0  0  0  0
    8.4904   -5.4089   24.5011 C   0  0  0  0  0  0  0  0  0  0  0  0
    9.0929   -4.1228   23.9384 C   0  0  0  0  0  0  0  0  0  0  0  0
   11.5211   -1.9713   23.2346 C   0  0  0  0  0  0  0  0  0  0  0  0
  1  2  1  0
  2  3  1  0
  3  4  2  0
  4  5  1  0
  5  6  2  0
  6  7  1  0
  7  8  1  0
  7 16  2  0
  8  9  1  0
  9 10  1  0
 10 11  1  0
 11 12  1  0
 12 13  1  0
 12 14  1  0
 14 15  1  0
 15  9  1  0
 16  3  1  0
M  END
>  <TransFSScore>  (17)
0.107509

>  <SuCOS_Score>  (17)
0.582964

>  <FeatureStein>  (17)
0.495501

>  <SCORE.norm>  (17)
-0.886828

>  <Max_SuCOS_Score>  (17)
0.582964

>  <Cum_SuCOS_Score>  (17)
4.551037

>  <TransFSScore_50nM>  (17)
0.013101

>  <TransFSScore_1uM>  (17)
0.044902

>  <TransFSScore_10nM>  (17)
0.011346

>  <TransFSScore_200nM>  (17)
0.360689

>  <TETHERED ATOMS>  (17)
13,12,11,10,9,8,7,15,14

$$$$
COc1ccnc(CN2CCC(O)CC2)c1
     RDKit          3D

 16 17  0  0  0  0  0  0  0  0999 V2000
   13.9516   -1.6664   20.5680 C   0  0  0  0  0  0  0  0  0  0  0  0
   13.3932   -2.2893   21.7245 O   0  0  0  0  0  0  0  0  0  0  0  0
   12.8633   -1.4839   22.6859 C   0  0  0  0  0  0  0  0  0  0  0  0
   13.3851   -0.2799   23.1332 C   0  0  0  0  0  0  0  0  0  0  0  0
   12.7111    0.4184   24.1260 C   0  0  0  0  0  0  0  0  0  0  0  0
   11.5734   -0.0710   24.6567 N   0  0  0  0  0  0  0  0  0  0  0  0
   11.0334   -1.2490   24.2617 C   0  0  0  0  0  0  0  0  0  0  0  0
    9.7427   -1.7516   24.8557 C   0  0  0  0  0  0  0  0  0  0  0  0
    9.5778   -3.2078   24.9997 N   0  0  0  0  0  0  0  0  0  0  0  0
   10.3896   -3.9203   26.0294 C   0  0  0  0  0  0  0  0  0  0  0  0
   10.6918   -5.3379   25.6097 C   0  0  0  0  0  0  0  0  0  0  0  0
    9.4326   -6.0845   25.2352 C   0  0  0  0  0  0  0  0  0  0  0  0
    8.7268   -6.3418   26.4409 O   0  0  0  0  0  0  0  0  0  0  0  0
    8.5266   -5.2935   24.2995 C   0  0  0  0  0  0  0  0  0  0  0  0
    9.1540   -3.9932   23.8019 C   0  0  0  0  0  0  0  0  0  0  0  0
   11.6813   -1.9642   23.2452 C   0  0  0  0  0  0  0  0  0  0  0  0
  1  2  1  0
  2  3  1  0
  3  4  2  0
  4  5  1  0
  5  6  2  0
  6  7  1  0
  7  8  1  0
  7 16  2  0
  8  9  1  0
  9 10  1  0
 10 11  1  0
 11 12  1  0
 12 13  1  0
 12 14  1  0
 14 15  1  0
 15  9  1  0
 16  3  1  0
M  END
>  <TransFSScore>  (18)
0.101531

>  <SuCOS_Score>  (18)
0.549297

>  <FeatureStein>  (18)
0.537972

>  <SCORE.norm>  (18)
-0.936047

>  <Max_SuCOS_Score>  (18)
0.549297

>  <Cum_SuCOS_Score>  (18)
4.483297

>  <TransFSScore_50nM>  (18)
0.014051

>  <TransFSScore_1uM>  (18)
0.033554

>  <TransFSScore_10nM>  (18)
0.019304

>  <TransFSScore_200nM>  (18)
0.339216

>  <TETHERED ATOMS>  (18)
13,12,11,10,9,8,7,15,14

$$$$
COc1ccnc(CN2CCC(O)CC2)c1
     RDKit          3D

 16 17  0  0  0  0  0  0  0  0999 V2000
   13.9601   -1.6406   20.5657 C   0  0  0  0  0  0  0  0  0  0  0  0
   13.3271   -2.2768   21.6757 O   0  0  0  0  0  0  0  0  0  0  0  0
   12.8213   -1.4824   22.6589 C   0  0  0  0  0  0  0  0  0  0  0  0
   13.3551   -0.2844   23.1080 C   0  0  0  0  0  0  0  0  0  0  0  0
   12.7058    0.4028   24.1247 C   0  0  0  0  0  0  0  0  0  0  0  0
   11.5804   -0.0918   24.6765 N   0  0  0  0  0  0  0  0  0  0  0  0
   11.0297   -1.2644   24.2804 C   0  0  0  0  0  0  0  0  0  0  0  0
    9.7528   -1.7728   24.8989 C   0  0  0  0  0  0  0  0  0  0  0  0
    9.6017   -3.2292   25.0558 N   0  0  0  0  0  0  0  0  0  0  0  0
   10.4507   -3.9311   26.0624 C   0  0  0  0  0  0  0  0  0  0  0  0
   10.7480   -5.3491   25.6406 C   0  0  0  0  0  0  0  0  0  0  0  0
    9.4822   -6.1054   25.3109 C   0  0  0  0  0  0  0  0  0  0  0  0
    8.8172   -6.3604   26.5401 O   0  0  0  0  0  0  0  0  0  0  0  0
    8.5415   -5.3250   24.4008 C   0  0  0  0  0  0  0  0  0  0  0  0
    9.1443   -4.0236   23.8764 C   0  0  0  0  0  0  0  0  0  0  0  0
   11.6523   -1.9682   23.2404 C   0  0  0  0  0  0  0  0  0  0  0  0
  1  2  1  0
  2  3  1  0
  3  4  2  0
  4  5  1  0
  5  6  2  0
  6  7  1  0
  7  8  1  0
  7 16  2  0
  8  9  1  0
  9 10  1  0
 10 11  1  0
 11 12  1  0
 12 13  1  0
 12 14  1  0
 14 15  1  0
 15  9  1  0
 16  3  1  0
M  END
>  <TransFSScore>  (19)
0.106924

>  <SuCOS_Score>  (19)
0.546516

>  <FeatureStein>  (19)
0.517653

>  <SCORE.norm>  (19)
-0.930475

>  <Max_SuCOS_Score>  (19)
0.546516

>  <Cum_SuCOS_Score>  (19)
4.456658

>  <TransFSScore_50nM>  (19)
0.014041

>  <TransFSScore_1uM>  (19)
0.033345

>  <TransFSScore_10nM>  (19)
0.020569

>  <TransFSScore_200nM>  (19)
0.35974

>  <TETHERED ATOMS>  (19)
13,12,11,10,9,8,7,15,14

$$$$
COc1ccnc(CN2CCC(O)CC2)c1
     RDKit          3D

 16 17  0  0  0  0  0  0  0  0999 V2000
   13.9399   -1.6750   20.5393 C   0  0  0  0  0  0  0  0  0  0  0  0
   13.4014   -2.3076   21.6999 O   0  0  0  0  0  0  0  0  0  0  0  0
   12.8519   -1.5126   22.6590 C   0  0  0  0  0  0  0  0  0  0  0  0
   13.3661   -0.3153   23.1323 C   0  0  0  0  0  0  0  0  0  0  0  0
   12.6717    0.3727   24.1182 C   0  0  0  0  0  0  0  0  0  0  0  0
   11.5216   -0.1205   24.6177 N   0  0  0  0  0  0  0  0  0  0  0  0
   10.9881   -1.2924   24.1966 C   0  0  0  0  0  0  0  0  0  0  0  0
    9.6835   -1.7992   24.7559 C   0  0  0  0  0  0  0  0  0  0  0  0
    9.5520   -3.2490   24.9777 N   0  0  0  0  0  0  0  0  0  0  0  0
   10.3682   -3.8839   26.0537 C   0  0  0  0  0  0  0  0  0  0  0  0
   10.7095   -5.3145   25.7157 C   0  0  0  0  0  0  0  0  0  0  0  0
    9.4735   -6.1113   25.3691 C   0  0  0  0  0  0  0  0  0  0  0  0
    8.7594   -6.3199   26.5792 O   0  0  0  0  0  0  0  0  0  0  0  0
    8.5601   -5.3952   24.3815 C   0  0  0  0  0  0  0  0  0  0  0  0
    9.1620   -4.1088   23.8202 C   0  0  0  0  0  0  0  0  0  0  0  0
   11.6569   -1.9969   23.1862 C   0  0  0  0  0  0  0  0  0  0  0  0
  1  2  1  0
  2  3  1  0
  3  4  2  0
  4  5  1  0
  5  6  2  0
  6  7  1  0
  7  8  1  0
  7 16  2  0
  8  9  1  0
  9 10  1  0
 10 11  1  0
 11 12  1  0
 12 13  1  0
 12 14  1  0
 14 15  1  0
 15  9  1  0
 16  3  1  0
M  END
>  <TransFSScore>  (20)
0.108493

>  <SuCOS_Score>  (20)
0.553882

>  <FeatureStein>  (20)
0.533336

>  <SCORE.norm>  (20)
-0.929836

>  <Max_SuCOS_Score>  (20)
0.553882

>  <Cum_SuCOS_Score>  (20)
4.488844

>  <TransFSScore_50nM>  (20)
0.015861

>  <TransFSScore_1uM>  (20)
0.035846

>  <TransFSScore_10nM>  (20)
0.022431

>  <TransFSScore_200nM>  (20)
0.359834

>  <TETHERED ATOMS>  (20)
13,12,11,10,9,8,7,15,14

$$$$
COc1ccnc(CN2CCC(O)CC2)c1
     RDKit          3D

 16 17  0  0  0  0  0  0  0  0999 V2000
   13.9832   -1.6512   20.5900 C   0  0  0  0  0  0  0  0  0  0  0  0
   13.2468   -2.2816   21.6377 O   0  0  0  0  0  0  0  0  0  0  0  0
   12.7624   -1.4932   22.6364 C   0  0  0  0  0  0  0  0  0  0  0  0
   13.3142   -0.3055   23.0912 C   0  0  0  0  0  0  0  0  0  0  0  0
   12.6858    0.3767   24.1242 C   0  0  0  0  0  0  0  0  0  0  0  0
   11.5633   -0.1129   24.6861 N   0  0  0  0  0  0  0  0  0  0  0  0
   10.9955   -1.2757   24.2849 C   0  0  0  0  0  0  0  0  0  0  0  0
    9.7223   -1.7784   24.9155 C   0  0  0  0  0  0  0  0  0  0  0  0
    9.5551   -3.2351   25.0507 N   0  0  0  0  0  0  0  0  0  0  0  0
   10.3996   -3.9619   26.0434 C   0  0  0  0  0  0  0  0  0  0  0  0
   10.6793   -5.3767   25.5990 C   0  0  0  0  0  0  0  0  0  0  0  0
    9.4038   -6.1134   25.2624 C   0  0  0  0  0  0  0  0  0  0  0  0
    8.7402   -6.3796   26.4899 O   0  0  0  0  0  0  0  0  0  0  0  0
    8.4690   -5.3086   24.3676 C   0  0  0  0  0  0  0  0  0  0  0  0
    9.0848   -4.0062   23.8609 C   0  0  0  0  0  0  0  0  0  0  0  0
   11.5968   -1.9739   23.2287 C   0  0  0  0  0  0  0  0  0  0  0  0
  1  2  1  0
  2  3  1  0
  3  4  2  0
  4  5  1  0
  5  6  2  0
  6  7  1  0
  7  8  1  0
  7 16  2  0
  8  9  1  0
  9 10  1  0
 10 11  1  0
 11 12  1  0
 12 13  1  0
 12 14  1  0
 14 15  1  0
 15  9  1  0
 16  3  1  0
M  END
>  <TransFSScore>  (21)
0.104317

>  <SuCOS_Score>  (21)
0.547126

>  <FeatureStein>  (21)
0.51519

>  <SCORE.norm>  (21)
-0.929657

>  <Max_SuCOS_Score>  (21)
0.547126

>  <Cum_SuCOS_Score>  (21)
4.482526

>  <TransFSScore_50nM>  (21)
0.014111

>  <TransFSScore_1uM>  (21)
0.032212

>  <TransFSScore_10nM>  (21)
0.019416

>  <TransFSScore_200nM>  (21)
0.351529

>  <TETHERED ATOMS>  (21)
13,12,11,10,9,8,7,15,14

$$$$
COc1ccnc(CN2CCC(O)CC2)c1
     RDKit          3D

 16 17  0  0  0  0  0  0  0  0999 V2000
   13.9793   -1.6319   20.5121 C   0  0  0  0  0  0  0  0  0  0  0  0
   13.4196   -2.2721   21.6585 O   0  0  0  0  0  0  0  0  0  0  0  0
   12.8837   -1.4816   22.6288 C   0  0  0  0  0  0  0  0  0  0  0  0
   13.4150   -0.2967   23.1145 C   0  0  0  0  0  0  0  0  0  0  0  0
   12.7328    0.3884   24.1108 C   0  0  0  0  0  0  0  0  0  0  0  0
   11.5780   -0.0956   24.6084 N   0  0  0  0  0  0  0  0  0  0  0  0
   11.0279   -1.2555   24.1753 C   0  0  0  0  0  0  0  0  0  0  0  0
    9.7187   -1.7519   24.7330 C   0  0  0  0  0  0  0  0  0  0  0  0
    9.5863   -3.1970   24.9834 N   0  0  0  0  0  0  0  0  0  0  0  0
   10.3745   -3.8043   26.0955 C   0  0  0  0  0  0  0  0  0  0  0  0
   10.7303   -5.2406   25.7992 C   0  0  0  0  0  0  0  0  0  0  0  0
    9.5072   -6.0501   25.4363 C   0  0  0  0  0  0  0  0  0  0  0  0
    8.7605   -6.2347   26.6306 O   0  0  0  0  0  0  0  0  0  0  0  0
    8.6191   -5.3600   24.4081 C   0  0  0  0  0  0  0  0  0  0  0  0
    9.2317   -4.0839   23.8351 C   0  0  0  0  0  0  0  0  0  0  0  0
   11.6842   -1.9565   23.1543 C   0  0  0  0  0  0  0  0  0  0  0  0
  1  2  1  0
  2  3  1  0
  3  4  2  0
  4  5  1  0
  5  6  2  0
  6  7  1  0
  7  8  1  0
  7 16  2  0
  8  9  1  0
  9 10  1  0
 10 11  1  0
 11 12  1  0
 12 13  1  0
 12 14  1  0
 14 15  1  0
 15  9  1  0
 16  3  1  0
M  END
>  <TransFSScore>  (22)
0.107174

>  <SuCOS_Score>  (22)
0.563355

>  <FeatureStein>  (22)
0.557028

>  <SCORE.norm>  (22)
-0.928883

>  <Max_SuCOS_Score>  (22)
0.563355

>  <Cum_SuCOS_Score>  (22)
4.513438

>  <TransFSScore_50nM>  (22)
0.016476

>  <TransFSScore_1uM>  (22)
0.036102

>  <TransFSScore_10nM>  (22)
0.021756

>  <TransFSScore_200nM>  (22)
0.354363

>  <TETHERED ATOMS>  (22)
13,12,11,10,9,8,7,15,14

$$$$
COc1cc(CN2CCC(O)CC2)ccn1
     RDKit          3D

 16 17  0  0  0  0  0  0  0  0999 V2000
   14.0117   -1.6796   20.4618 C   0  0  0  0  0  0  0  0  0  0  0  0
   13.8968   -2.2754   21.7522 O   0  0  0  0  0  0  0  0  0  0  0  0
   12.9926   -1.6299   22.5680 C   0  0  0  0  0  0  0  0  0  0  0  0
   11.7916   -2.2865   22.7859 C   0  0  0  0  0  0  0  0  0  0  0  0
   10.8219   -1.6728   23.5889 C   0  0  0  0  0  0  0  0  0  0  0  0
    9.5021   -2.3289   23.8309 C   0  0  0  0  0  0  0  0  0  0  0  0
    9.5449   -3.5908   24.5800 N   0  0  0  0  0  0  0  0  0  0  0  0
    8.2780   -4.3918   24.6323 C   0  0  0  0  0  0  0  0  0  0  0  0
    8.3231   -5.4320   25.7312 C   0  0  0  0  0  0  0  0  0  0  0  0
    9.6930   -6.0087   25.6234 C   0  0  0  0  0  0  0  0  0  0  0  0
    9.7994   -7.3788   25.6740 O   0  0  0  0  0  0  0  0  0  0  0  0
   10.7850   -5.1015   26.1152 C   0  0  0  0  0  0  0  0  0  0  0  0
   10.4425   -3.6391   25.7790 C   0  0  0  0  0  0  0  0  0  0  0  0
   11.1217   -0.4253   24.1507 C   0  0  0  0  0  0  0  0  0  0  0  0
   12.3529    0.1502   23.8756 C   0  0  0  0  0  0  0  0  0  0  0  0
   13.2834   -0.4226   23.0871 N   0  0  0  0  0  0  0  0  0  0  0  0
  1  2  1  0
  2  3  1  0
  3  4  2  0
  4  5  1  0
  5  6  1  0
  5 14  2  0
  6  7  1  0
  7  8  1  0
  8  9  1  0
  9 10  1  0
 10 11  1  0
 10 12  1  0
 12 13  1  0
 13  7  1  0
 14 15  1  0
 15 16  2  0
 16  3  1  0
M  END
>  <TransFSScore>  (23)
0.092397

>  <SuCOS_Score>  (23)
0.610533

>  <FeatureStein>  (23)
0.495972

>  <SCORE.norm>  (23)
-0.904946

>  <Max_SuCOS_Score>  (23)
0.610533

>  <Cum_SuCOS_Score>  (23)
4.584374

>  <TransFSScore_50nM>  (23)
0.032632

>  <TransFSScore_1uM>  (23)
0.091196

>  <TransFSScore_10nM>  (23)
0.002691

>  <TransFSScore_200nM>  (23)
0.243069

>  <TETHERED ATOMS>  (23)
11,10,9,8,7,6,5,13,12

$$$$
COc1cncc(CN2CCC(O)CC2)n1
     RDKit          3D

 16 17  0  0  0  0  0  0  0  0999 V2000
   13.7940   -1.7861   20.7174 C   0  0  0  0  0  0  0  0  0  0  0  0
   13.9838   -1.7067   22.1290 O   0  0  0  0  0  0  0  0  0  0  0  0
   12.8803   -1.2864   22.8272 C   0  0  0  0  0  0  0  0  0  0  0  0
   12.9766   -0.0682   23.4795 C   0  0  0  0  0  0  0  0  0  0  0  0
   11.9040    0.3739   24.1632 N   0  0  0  0  0  0  0  0  0  0  0  0
   10.7570   -0.3370   24.2225 C   0  0  0  0  0  0  0  0  0  0  0  0
   10.6876   -1.5617   23.5525 C   0  0  0  0  0  0  0  0  0  0  0  0
    9.4696   -2.4495   23.6264 C   0  0  0  0  0  0  0  0  0  0  0  0
    9.5652   -3.6772   24.4329 N   0  0  0  0  0  0  0  0  0  0  0  0
    8.3955   -4.5992   24.4905 C   0  0  0  0  0  0  0  0  0  0  0  0
    8.3483   -5.3461   25.8021 C   0  0  0  0  0  0  0  0  0  0  0  0
    9.6607   -6.0151   26.1290 C   0  0  0  0  0  0  0  0  0  0  0  0
    9.7809   -7.1418   25.2750 O   0  0  0  0  0  0  0  0  0  0  0  0
   10.8658   -5.1106   25.9153 C   0  0  0  0  0  0  0  0  0  0  0  0
   10.4953   -3.6689   25.5926 C   0  0  0  0  0  0  0  0  0  0  0  0
   11.7523   -2.0348   22.8524 N   0  0  0  0  0  0  0  0  0  0  0  0
  1  2  1  0
  2  3  1  0
  3  4  2  0
  4  5  1  0
  5  6  2  0
  6  7  1  0
  7  8  1  0
  7 16  2  0
  8  9  1  0
  9 10  1  0
 10 11  1  0
 11 12  1  0
 12 13  1  0
 12 14  1  0
 14 15  1  0
 15  9  1  0
 16  3  1  0
M  END
>  <TransFSScore>  (24)
0.195506

>  <SuCOS_Score>  (24)
0.527473

>  <FeatureStein>  (24)
0.564102

>  <SCORE.norm>  (24)
-0.874978

>  <Max_SuCOS_Score>  (24)
0.562947

>  <Cum_SuCOS_Score>  (24)
4.74408

>  <TransFSScore_50nM>  (24)
0.071652

>  <TransFSScore_1uM>  (24)
0.145932

>  <TransFSScore_10nM>  (24)
0.038612

>  <TransFSScore_200nM>  (24)
0.525829

>  <TETHERED ATOMS>  (24)
13,12,11,10,9,8,7,15,14

$$$$
COc1cncc(CN2CCC(O)CC2)n1
     RDKit          3D

 16 17  0  0  0  0  0  0  0  0999 V2000
   13.8519   -1.8219   20.7061 C   0  0  0  0  0  0  0  0  0  0  0  0
   14.0543   -1.6412   22.1066 O   0  0  0  0  0  0  0  0  0  0  0  0
   12.9376   -1.2390   22.7942 C   0  0  0  0  0  0  0  0  0  0  0  0
   13.0195   -0.0361   23.4762 C   0  0  0  0  0  0  0  0  0  0  0  0
   11.9338    0.3883   24.1503 N   0  0  0  0  0  0  0  0  0  0  0  0
   10.7874   -0.3257   24.1723 C   0  0  0  0  0  0  0  0  0  0  0  0
   10.7327   -1.5346   23.4730 C   0  0  0  0  0  0  0  0  0  0  0  0
    9.5153   -2.4259   23.5042 C   0  0  0  0  0  0  0  0  0  0  0  0
    9.5646   -3.6222   24.3604 N   0  0  0  0  0  0  0  0  0  0  0  0
    8.4087   -4.5633   24.3577 C   0  0  0  0  0  0  0  0  0  0  0  0
    8.2671   -5.2642   25.6878 C   0  0  0  0  0  0  0  0  0  0  0  0
    9.5591   -5.8965   26.1437 C   0  0  0  0  0  0  0  0  0  0  0  0
    9.7659   -7.0503   25.3441 O   0  0  0  0  0  0  0  0  0  0  0  0
   10.7632   -4.9777   25.9944 C   0  0  0  0  0  0  0  0  0  0  0  0
   10.3973   -3.5555   25.5902 C   0  0  0  0  0  0  0  0  0  0  0  0
   11.8108   -1.9896   22.7816 N   0  0  0  0  0  0  0  0  0  0  0  0
  1  2  1  0
  2  3  1  0
  3  4  2  0
  4  5  1  0
  5  6  2  0
  6  7  1  0
  7  8  1  0
  7 16  2  0
  8  9  1  0
  9 10  1  0
 10 11  1  0
 11 12  1  0
 12 13  1  0
 12 14  1  0
 14 15  1  0
 15  9  1  0
 16  3  1  0
M  END
>  <TransFSScore>  (25)
0.189115

>  <SuCOS_Score>  (25)
0.539544

>  <FeatureStein>  (25)
0.580057

>  <SCORE.norm>  (25)
-0.860926

>  <Max_SuCOS_Score>  (25)
0.564241

>  <Cum_SuCOS_Score>  (25)
4.801332

>  <TransFSScore_50nM>  (25)
0.056481

>  <TransFSScore_1uM>  (25)
0.152074

>  <TransFSScore_10nM>  (25)
0.036994

>  <TransFSScore_200nM>  (25)
0.510912

>  <TETHERED ATOMS>  (25)
13,12,11,10,9,8,7,15,14

$$$$
COc1cncc(CN2CCC(O)CC2)n1
     RDKit          3D

 16 17  0  0  0  0  0  0  0  0999 V2000
   13.8537   -1.7185   20.5972 C   0  0  0  0  0  0  0  0  0  0  0  0
   14.0811   -1.7234   22.0103 O   0  0  0  0  0  0  0  0  0  0  0  0
   13.1353   -1.1753   22.8095 C   0  0  0  0  0  0  0  0  0  0  0  0
   13.2193    0.0370   23.5074 C   0  0  0  0  0  0  0  0  0  0  0  0
   12.1726    0.4379   24.2588 N   0  0  0  0  0  0  0  0  0  0  0  0
   11.0420   -0.2923   24.3665 C   0  0  0  0  0  0  0  0  0  0  0  0
   10.9408   -1.5265   23.6843 C   0  0  0  0  0  0  0  0  0  0  0  0
    9.6755   -2.3568   23.6839 C   0  0  0  0  0  0  0  0  0  0  0  0
    9.6762   -3.5990   24.4686 N   0  0  0  0  0  0  0  0  0  0  0  0
    8.5188   -4.5380   24.3605 C   0  0  0  0  0  0  0  0  0  0  0  0
    8.3296   -5.3132   25.6399 C   0  0  0  0  0  0  0  0  0  0  0  0
    9.5956   -6.0412   26.0304 C   0  0  0  0  0  0  0  0  0  0  0  0
    9.7529   -7.1059   25.1065 O   0  0  0  0  0  0  0  0  0  0  0  0
   10.8355   -5.1578   25.9637 C   0  0  0  0  0  0  0  0  0  0  0  0
   10.5282   -3.6867   25.7015 C   0  0  0  0  0  0  0  0  0  0  0  0
   11.9989   -1.8980   22.9252 N   0  0  0  0  0  0  0  0  0  0  0  0
  1  2  1  0
  2  3  1  0
  3  4  2  0
  4  5  1  0
  5  6  2  0
  6  7  1  0
  7  8  1  0
  7 16  2  0
  8  9  1  0
  9 10  1  0
 10 11  1  0
 11 12  1  0
 12 13  1  0
 12 14  1  0
 14 15  1  0
 15  9  1  0
 16  3  1  0
M  END
>  <TransFSScore>  (26)
0.201875

>  <SuCOS_Score>  (26)
0.541963

>  <FeatureStein>  (26)
0.597961

>  <SCORE.norm>  (26)
-0.860172

>  <Max_SuCOS_Score>  (26)
0.555104

>  <Cum_SuCOS_Score>  (26)
4.699754

>  <TransFSScore_50nM>  (26)
0.074991

>  <TransFSScore_1uM>  (26)
0.154674

>  <TransFSScore_10nM>  (26)
0.043387

>  <TransFSScore_200nM>  (26)
0.534448

>  <TETHERED ATOMS>  (26)
13,12,11,10,9,8,7,15,14

$$$$
COc1cncc(CN2CCC(O)CC2)n1
     RDKit          3D

 16 17  0  0  0  0  0  0  0  0999 V2000
   13.8601   -1.7468   20.4959 C   0  0  0  0  0  0  0  0  0  0  0  0
   13.7501   -2.3088   21.8024 O   0  0  0  0  0  0  0  0  0  0  0  0
   13.0168   -1.5560   22.6841 C   0  0  0  0  0  0  0  0  0  0  0  0
   13.5851   -0.3710   23.1218 C   0  0  0  0  0  0  0  0  0  0  0  0
   12.8820    0.3933   23.9791 N   0  0  0  0  0  0  0  0  0  0  0  0
   11.6547    0.0308   24.4113 C   0  0  0  0  0  0  0  0  0  0  0  0
   11.1050   -1.1690   23.9510 C   0  0  0  0  0  0  0  0  0  0  0  0
    9.7717   -1.6807   24.4386 C   0  0  0  0  0  0  0  0  0  0  0  0
    9.6535   -3.1199   24.7239 N   0  0  0  0  0  0  0  0  0  0  0  0
   10.4914   -3.7158   25.8030 C   0  0  0  0  0  0  0  0  0  0  0  0
   10.8020   -5.1664   25.5203 C   0  0  0  0  0  0  0  0  0  0  0  0
    9.5626   -5.9678   25.2064 C   0  0  0  0  0  0  0  0  0  0  0  0
    8.8667   -6.1590   26.4280 O   0  0  0  0  0  0  0  0  0  0  0  0
    8.6337   -5.2761   24.2192 C   0  0  0  0  0  0  0  0  0  0  0  0
    9.2238   -4.0095   23.6129 C   0  0  0  0  0  0  0  0  0  0  0  0
   11.7886   -1.9618   23.0841 N   0  0  0  0  0  0  0  0  0  0  0  0
  1  2  1  0
  2  3  1  0
  3  4  2  0
  4  5  1  0
  5  6  2  0
  6  7  1  0
  7  8  1  0
  7 16  2  0
  8  9  1  0
  9 10  1  0
 10 11  1  0
 11 12  1  0
 12 13  1  0
 12 14  1  0
 14 15  1  0
 15  9  1  0
 16  3  1  0
M  END
>  <TransFSScore>  (27)
0.181391

>  <SuCOS_Score>  (27)
0.587835

>  <FeatureStein>  (27)
0.603719

>  <SCORE.norm>  (27)
-0.821211

>  <Max_SuCOS_Score>  (27)
0.587835

>  <Cum_SuCOS_Score>  (27)
4.568135

>  <TransFSScore_50nM>  (27)
0.013104

>  <TransFSScore_1uM>  (27)
0.109463

>  <TransFSScore_10nM>  (27)
0.038852

>  <TransFSScore_200nM>  (27)
0.564146

>  <TETHERED ATOMS>  (27)
13,12,11,10,9,8,7,15,14

$$$$
COc1cncc(CN2CCC(O)CC2)n1
     RDKit          3D

 16 17  0  0  0  0  0  0  0  0999 V2000
   13.8471   -1.7438   20.4784 C   0  0  0  0  0  0  0  0  0  0  0  0
   13.7745   -2.2846   21.7964 O   0  0  0  0  0  0  0  0  0  0  0  0
   13.0201   -1.5458   22.6721 C   0  0  0  0  0  0  0  0  0  0  0  0
   13.5779   -0.3684   23.1428 C   0  0  0  0  0  0  0  0  0  0  0  0
   12.8543    0.3822   23.9951 N   0  0  0  0  0  0  0  0  0  0  0  0
   11.6167    0.0136   24.3913 C   0  0  0  0  0  0  0  0  0  0  0  0
   11.0781   -1.1782   23.8982 C   0  0  0  0  0  0  0  0  0  0  0  0
    9.7331   -1.6968   24.3447 C   0  0  0  0  0  0  0  0  0  0  0  0
    9.6211   -3.1314   24.6546 N   0  0  0  0  0  0  0  0  0  0  0  0
   10.5023   -3.7168   25.7046 C   0  0  0  0  0  0  0  0  0  0  0  0
   10.7940   -5.1726   25.4286 C   0  0  0  0  0  0  0  0  0  0  0  0
    9.5387   -5.9721   25.1796 C   0  0  0  0  0  0  0  0  0  0  0  0
    8.8954   -6.1432   26.4327 O   0  0  0  0  0  0  0  0  0  0  0  0
    8.5709   -5.2892   24.2241 C   0  0  0  0  0  0  0  0  0  0  0  0
    9.1398   -4.0338   23.5756 C   0  0  0  0  0  0  0  0  0  0  0  0
   11.7824   -1.9572   23.0354 N   0  0  0  0  0  0  0  0  0  0  0  0
  1  2  1  0
  2  3  1  0
  3  4  2  0
  4  5  1  0
  5  6  2  0
  6  7  1  0
  7  8  1  0
  7 16  2  0
  8  9  1  0
  9 10  1  0
 10 11  1  0
 11 12  1  0
 12 13  1  0
 12 14  1  0
 14 15  1  0
 15  9  1  0
 16  3  1  0
M  END
>  <TransFSScore>  (28)
0.183515

>  <SuCOS_Score>  (28)
0.590184

>  <FeatureStein>  (28)
0.616918

>  <SCORE.norm>  (28)
-0.82067

>  <Max_SuCOS_Score>  (28)
0.590184

>  <Cum_SuCOS_Score>  (28)
4.603647

>  <TransFSScore_50nM>  (28)
0.012691

>  <TransFSScore_1uM>  (28)
0.118927

>  <TransFSScore_10nM>  (28)
0.039962

>  <TransFSScore_200nM>  (28)
0.56248

>  <TETHERED ATOMS>  (28)
13,12,11,10,9,8,7,15,14

$$$$
COc1cncc(CN2CCC(O)CC2)n1
     RDKit          3D

 16 17  0  0  0  0  0  0  0  0999 V2000
   13.9361   -1.7439   20.5352 C   0  0  0  0  0  0  0  0  0  0  0  0
   14.1308   -1.3119   21.8808 O   0  0  0  0  0  0  0  0  0  0  0  0
   12.9745   -1.1775   22.6066 C   0  0  0  0  0  0  0  0  0  0  0  0
   12.8416   -0.0283   23.3685 C   0  0  0  0  0  0  0  0  0  0  0  0
   11.7113    0.1347   24.0821 N   0  0  0  0  0  0  0  0  0  0  0  0
   10.7231   -0.7861   24.0675 C   0  0  0  0  0  0  0  0  0  0  0  0
   10.8834   -1.9348   23.2875 C   0  0  0  0  0  0  0  0  0  0  0  0
    9.8597   -3.0434   23.2708 C   0  0  0  0  0  0  0  0  0  0  0  0
    9.6760   -3.8241   24.5050 N   0  0  0  0  0  0  0  0  0  0  0  0
   10.8777   -4.2736   25.2637 C   0  0  0  0  0  0  0  0  0  0  0  0
   10.6096   -5.5614   26.0056 C   0  0  0  0  0  0  0  0  0  0  0  0
    9.3578   -5.4901   26.8450 C   0  0  0  0  0  0  0  0  0  0  0  0
    9.6549   -4.6816   27.9726 O   0  0  0  0  0  0  0  0  0  0  0  0
    8.1736   -4.8819   26.1075 C   0  0  0  0  0  0  0  0  0  0  0  0
    8.4381   -4.6384   24.6274 C   0  0  0  0  0  0  0  0  0  0  0  0
   12.0118   -2.1280   22.5548 N   0  0  0  0  0  0  0  0  0  0  0  0
  1  2  1  0
  2  3  1  0
  3  4  2  0
  4  5  1  0
  5  6  2  0
  6  7  1  0
  7  8  1  0
  7 16  2  0
  8  9  1  0
  9 10  1  0
 10 11  1  0
 11 12  1  0
 12 13  1  0
 12 14  1  0
 14 15  1  0
 15  9  1  0
 16  3  1  0
M  END
>  <TransFSScore>  (29)
0.141071

>  <SuCOS_Score>  (29)
0.626352

>  <FeatureStein>  (29)
0.646183

>  <SCORE.norm>  (29)
-0.805224

>  <Max_SuCOS_Score>  (29)
0.626352

>  <Cum_SuCOS_Score>  (29)
4.678977

>  <TransFSScore_50nM>  (29)
0.030308

>  <TransFSScore_1uM>  (29)
0.105986

>  <TransFSScore_10nM>  (29)
0.025871

>  <TransFSScore_200nM>  (29)
0.402118

>  <TETHERED ATOMS>  (29)
13,12,11,10,9,8,7,15,14

$$$$
COc1cncc(CN2CCC(O)CC2)n1
     RDKit          3D

 16 17  0  0  0  0  0  0  0  0999 V2000
   13.9128   -1.7783   20.5879 C   0  0  0  0  0  0  0  0  0  0  0  0
   14.1608   -1.3951   21.9395 O   0  0  0  0  0  0  0  0  0  0  0  0
   13.0295   -1.1879   22.6872 C   0  0  0  0  0  0  0  0  0  0  0  0
   12.9692   -0.0156   23.4228 C   0  0  0  0  0  0  0  0  0  0  0  0
   11.8649    0.2186   24.1570 N   0  0  0  0  0  0  0  0  0  0  0  0
   10.8341   -0.6538   24.1877 C   0  0  0  0  0  0  0  0  0  0  0  0
   10.9214   -1.8273   23.4335 C   0  0  0  0  0  0  0  0  0  0  0  0
    9.8462   -2.8856   23.4675 C   0  0  0  0  0  0  0  0  0  0  0  0
    9.6800   -3.6528   24.7126 N   0  0  0  0  0  0  0  0  0  0  0  0
   10.8653   -4.3323   25.3086 C   0  0  0  0  0  0  0  0  0  0  0  0
   10.4621   -5.5696   26.0748 C   0  0  0  0  0  0  0  0  0  0  0  0
    9.3605   -5.2955   27.0688 C   0  0  0  0  0  0  0  0  0  0  0  0
    9.9401   -4.5844   28.1512 O   0  0  0  0  0  0  0  0  0  0  0  0
    8.2239   -4.4638   26.4920 C   0  0  0  0  0  0  0  0  0  0  0  0
    8.3397   -4.2327   24.9909 C   0  0  0  0  0  0  0  0  0  0  0  0
   12.0218   -2.0921   22.6809 N   0  0  0  0  0  0  0  0  0  0  0  0
  1  2  1  0
  2  3  1  0
  3  4  2  0
  4  5  1  0
  5  6  2  0
  6  7  1  0
  7  8  1  0
  7 16  2  0
  8  9  1  0
  9 10  1  0
 10 11  1  0
 11 12  1  0
 12 13  1  0
 12 14  1  0
 14 15  1  0
 15  9  1  0
 16  3  1  0
M  END
>  <TransFSScore>  (30)
0.158564

>  <SuCOS_Score>  (30)
0.610928

>  <FeatureStein>  (30)
0.627844

>  <SCORE.norm>  (30)
-0.802296

>  <Max_SuCOS_Score>  (30)
0.610928

>  <Cum_SuCOS_Score>  (30)
4.679293

>  <TransFSScore_50nM>  (30)
0.044479

>  <TransFSScore_1uM>  (30)
0.103207

>  <TransFSScore_10nM>  (30)
0.033315

>  <TransFSScore_200nM>  (30)
0.453254

>  <TETHERED ATOMS>  (30)
13,12,11,10,9,8,7,15,14

$$$$
NC(=O)C1(O)CCN(C(=O)Cc2cccs2)CC1
     RDKit          3D

 18 19  0  0  0  0  0  0  0  0999 V2000
    9.4985   -4.5790   27.9481 N   0  0  0  0  0  0  0  0  0  0  0  0
    8.9190   -4.6165   26.7538 C   0  0  0  0  0  0  0  0  0  0  0  0
    7.8472   -4.0494   26.5075 O   0  0  0  0  0  0  0  0  0  0  0  0
    9.6589   -5.3704   25.5362 C   0  0  0  0  0  0  0  0  0  0  0  0
    9.7227   -6.5743   26.2429 O   0  0  0  0  0  0  0  0  0  0  0  0
   11.0137   -4.7511   25.3377 C   0  0  0  0  0  0  0  0  0  0  0  0
   10.7090   -3.2859   25.2361 C   0  0  0  0  0  0  0  0  0  0  0  0
    9.7344   -2.9737   24.2052 N   0  0  0  0  0  0  0  0  0  0  0  0
    9.3373   -1.6667   24.0144 C   0  0  0  0  0  0  0  0  0  0  0  0
    8.2865   -1.3533   23.4536 O   0  0  0  0  0  0  0  0  0  0  0  0
   10.4384   -0.6595   24.3072 C   0  0  0  0  0  0  0  0  0  0  0  0
   11.6588   -0.8804   23.4513 C   0  0  0  0  0  0  0  0  0  0  0  0
   11.8067   -1.7458   22.3837 C   0  0  0  0  0  0  0  0  0  0  0  0
   13.1031   -1.6723   21.7992 C   0  0  0  0  0  0  0  0  0  0  0  0
   13.9011   -0.7476   22.4337 C   0  0  0  0  0  0  0  0  0  0  0  0
   13.0889    0.0247   23.7252 S   0  0  0  0  0  0  0  0  0  0  0  0
    8.9771   -4.0298   23.5391 C   0  0  0  0  0  0  0  0  0  0  0  0
    8.9015   -5.3875   24.2420 C   0  0  0  0  0  0  0  0  0  0  0  0
  1  2  1  0
  2  3  2  0
  2  4  1  0
  4  5  1  0
  4  6  1  0
  6  7  1  0
  7  8  1  0
  8  9  1  0
  8 17  1  0
  9 10  2  0
  9 11  1  0
 11 12  1  0
 12 13  2  0
 13 14  1  0
 14 15  2  0
 15 16  1  0
 16 12  1  0
 17 18  1  0
 18  4  1  0
M  END
>  <TransFSScore>  (31)
0.146759

>  <SuCOS_Score>  (31)
0.735354

>  <FeatureStein>  (31)
0.495707

>  <SCORE.norm>  (31)
-1.07391

>  <Max_SuCOS_Score>  (31)
0.735354

>  <Cum_SuCOS_Score>  (31)
5.163043

>  <TransFSScore_50nM>  (31)
0.013322

>  <TransFSScore_1uM>  (31)
0.388442

>  <TransFSScore_10nM>  (31)
0.152865

>  <TransFSScore_200nM>  (31)
0.032406

>  <TETHERED ATOMS>  (31)
5,4,6,7,8,9,11,17,18

$$$$
NC(=O)C1(O)CCN(Cc2ccccc2)CC1
     RDKit          3D

 17 18  0  0  0  0  0  0  0  0999 V2000
    8.5108   -3.8574   28.1122 N   0  0  0  0  0  0  0  0  0  0  0  0
    8.6989   -5.1026   27.6917 C   0  0  0  0  0  0  0  0  0  0  0  0
    8.5252   -6.1306   28.3357 O   0  0  0  0  0  0  0  0  0  0  0  0
    9.1826   -5.1299   26.2322 C   0  0  0  0  0  0  0  0  0  0  0  0
    9.4433   -6.4569   25.7766 O   0  0  0  0  0  0  0  0  0  0  0  0
    8.0711   -4.5670   25.3715 C   0  0  0  0  0  0  0  0  0  0  0  0
    8.5710   -4.1733   24.0094 C   0  0  0  0  0  0  0  0  0  0  0  0
    9.7727   -3.2984   24.0976 N   0  0  0  0  0  0  0  0  0  0  0  0
   10.0027   -2.3101   23.0458 C   0  0  0  0  0  0  0  0  0  0  0  0
   11.3366   -1.6337   23.0507 C   0  0  0  0  0  0  0  0  0  0  0  0
   11.5697   -0.5385   23.8992 C   0  0  0  0  0  0  0  0  0  0  0  0
   12.8074    0.1054   23.9019 C   0  0  0  0  0  0  0  0  0  0  0  0
   13.8260   -0.3378   23.0618 C   0  0  0  0  0  0  0  0  0  0  0  0
   13.6101   -1.4250   22.2179 C   0  0  0  0  0  0  0  0  0  0  0  0
   12.3730   -2.0715   22.2108 C   0  0  0  0  0  0  0  0  0  0  0  0
   10.2978   -3.0071   25.4598 C   0  0  0  0  0  0  0  0  0  0  0  0
   10.4872   -4.3425   26.1569 C   0  0  0  0  0  0  0  0  0  0  0  0
  1  2  1  0
  2  3  2  0
  2  4  1  0
  4  5  1  0
  4  6  1  0
  6  7  1  0
  7  8  1  0
  8  9  1  0
  8 16  1  0
  9 10  1  0
 10 11  2  0
 11 12  1  0
 12 13  2  0
 13 14  1  0
 14 15  2  0
 15 10  1  0
 16 17  1  0
 17  4  1  0
M  END
>  <TransFSScore>  (32)
0.093426

>  <SuCOS_Score>  (32)
0.741662

>  <FeatureStein>  (32)
0.490947

>  <SCORE.norm>  (32)
-1.25382

>  <Max_SuCOS_Score>  (32)
0.741662

>  <Cum_SuCOS_Score>  (32)
4.821464

>  <TransFSScore_50nM>  (32)
0.029092

>  <TransFSScore_1uM>  (32)
0.228037

>  <TransFSScore_10nM>  (32)
0.019853

>  <TransFSScore_200nM>  (32)
0.096721

>  <TETHERED ATOMS>  (32)
5,4,6,7,8,9,10,16,17

$$$$
NC(=O)C1(O)CCN(Cc2ccccc2)CC1
     RDKit          3D

 17 18  0  0  0  0  0  0  0  0999 V2000
    8.8347   -3.8231   28.3314 N   0  0  0  0  0  0  0  0  0  0  0  0
    8.8147   -5.0640   27.8600 C   0  0  0  0  0  0  0  0  0  0  0  0
    8.5674   -6.0860   28.4893 O   0  0  0  0  0  0  0  0  0  0  0  0
    9.1500   -5.0947   26.3594 C   0  0  0  0  0  0  0  0  0  0  0  0
    9.2752   -6.4268   25.8633 O   0  0  0  0  0  0  0  0  0  0  0  0
    7.9998   -4.4437   25.6204 C   0  0  0  0  0  0  0  0  0  0  0  0
    8.3890   -4.0573   24.2207 C   0  0  0  0  0  0  0  0  0  0  0  0
    9.6495   -3.2648   24.2005 N   0  0  0  0  0  0  0  0  0  0  0  0
    9.8411   -2.2736   23.1438 C   0  0  0  0  0  0  0  0  0  0  0  0
   11.1858   -1.6220   23.0807 C   0  0  0  0  0  0  0  0  0  0  0  0
   12.1537   -2.0867   22.1746 C   0  0  0  0  0  0  0  0  0  0  0  0
   13.4144   -1.4920   22.1172 C   0  0  0  0  0  0  0  0  0  0  0  0
   13.7220   -0.4263   22.9596 C   0  0  0  0  0  0  0  0  0  0  0  0
   12.7706    0.0473   23.8604 C   0  0  0  0  0  0  0  0  0  0  0  0
   11.5083   -0.5455   23.9223 C   0  0  0  0  0  0  0  0  0  0  0  0
   10.3240   -3.0349   25.5075 C   0  0  0  0  0  0  0  0  0  0  0  0
   10.4908   -4.3931   26.1654 C   0  0  0  0  0  0  0  0  0  0  0  0
  1  2  1  0
  2  3  2  0
  2  4  1  0
  4  5  1  0
  4  6  1  0
  6  7  1  0
  7  8  1  0
  8  9  1  0
  8 16  1  0
  9 10  1  0
 10 11  2  0
 11 12  1  0
 12 13  2  0
 13 14  1  0
 14 15  2  0
 15 10  1  0
 16 17  1  0
 17  4  1  0
M  END
>  <TransFSScore>  (33)
0.109687

>  <SuCOS_Score>  (33)
0.767686

>  <FeatureStein>  (33)
0.515065

>  <SCORE.norm>  (33)
-1.24833

>  <Max_SuCOS_Score>  (33)
0.767686

>  <Cum_SuCOS_Score>  (33)
4.875149

>  <TransFSScore_50nM>  (33)
0.048865

>  <TransFSScore_1uM>  (33)
0.233046

>  <TransFSScore_10nM>  (33)
0.027078

>  <TransFSScore_200nM>  (33)
0.129758

>  <TETHERED ATOMS>  (33)
5,4,6,7,8,9,10,16,17

$$$$
NC(=O)C1(O)CCN(Cc2ccccc2)CC1
     RDKit          3D

 17 18  0  0  0  0  0  0  0  0999 V2000
    8.8546   -3.8322   28.2698 N   0  0  0  0  0  0  0  0  0  0  0  0
    8.8223   -5.0788   27.8144 C   0  0  0  0  0  0  0  0  0  0  0  0
    8.5454   -6.0880   28.4521 O   0  0  0  0  0  0  0  0  0  0  0  0
    9.1859   -5.1354   26.3212 C   0  0  0  0  0  0  0  0  0  0  0  0
    9.3208   -6.4758   25.8507 O   0  0  0  0  0  0  0  0  0  0  0  0
    8.0496   -4.4980   25.5494 C   0  0  0  0  0  0  0  0  0  0  0  0
    8.4650   -4.1357   24.1508 C   0  0  0  0  0  0  0  0  0  0  0  0
    9.7254   -3.3429   24.1406 N   0  0  0  0  0  0  0  0  0  0  0  0
    9.9366   -2.3701   23.0706 C   0  0  0  0  0  0  0  0  0  0  0  0
   11.2380   -1.6333   23.0906 C   0  0  0  0  0  0  0  0  0  0  0  0
   12.2831   -2.0231   22.2364 C   0  0  0  0  0  0  0  0  0  0  0  0
   13.5042   -1.3485   22.2568 C   0  0  0  0  0  0  0  0  0  0  0  0
   13.6948   -0.2769   23.1258 C   0  0  0  0  0  0  0  0  0  0  0  0
   12.6658    0.1228   23.9757 C   0  0  0  0  0  0  0  0  0  0  0  0
   11.4428   -0.5500   23.9599 C   0  0  0  0  0  0  0  0  0  0  0  0
   10.3751   -3.0900   25.4559 C   0  0  0  0  0  0  0  0  0  0  0  0
   10.5299   -4.4364   26.1402 C   0  0  0  0  0  0  0  0  0  0  0  0
  1  2  1  0
  2  3  2  0
  2  4  1  0
  4  5  1  0
  4  6  1  0
  6  7  1  0
  7  8  1  0
  8  9  1  0
  8 16  1  0
  9 10  1  0
 10 11  2  0
 11 12  1  0
 12 13  2  0
 13 14  1  0
 14 15  2  0
 15 10  1  0
 16 17  1  0
 17  4  1  0
M  END
>  <TransFSScore>  (34)
0.105263

>  <SuCOS_Score>  (34)
0.760895

>  <FeatureStein>  (34)
0.506422

>  <SCORE.norm>  (34)
-1.24662

>  <Max_SuCOS_Score>  (34)
0.760895

>  <Cum_SuCOS_Score>  (34)
4.899529

>  <TransFSScore_50nM>  (34)
0.041272

>  <TransFSScore_1uM>  (34)
0.22646

>  <TransFSScore_10nM>  (34)
0.025817

>  <TransFSScore_200nM>  (34)
0.127503

>  <TETHERED ATOMS>  (34)
5,4,6,7,8,9,10,16,17

$$$$
NC(=O)C1(O)CCN(Cc2ccccc2)CC1
     RDKit          3D

 17 18  0  0  0  0  0  0  0  0999 V2000
    8.3573   -5.2742   28.9989 N   0  0  0  0  0  0  0  0  0  0  0  0
    9.3670   -4.7186   28.3399 C   0  0  0  0  0  0  0  0  0  0  0  0
   10.3439   -4.1603   28.8255 O   0  0  0  0  0  0  0  0  0  0  0  0
    9.1806   -4.8535   26.8194 C   0  0  0  0  0  0  0  0  0  0  0  0
    8.6682   -6.1336   26.4517 O   0  0  0  0  0  0  0  0  0  0  0  0
    8.1618   -3.8188   26.3899 C   0  0  0  0  0  0  0  0  0  0  0  0
    8.2008   -3.5865   24.9052 C   0  0  0  0  0  0  0  0  0  0  0  0
    9.5843   -3.3100   24.4291 N   0  0  0  0  0  0  0  0  0  0  0  0
    9.7687   -2.4462   23.2647 C   0  0  0  0  0  0  0  0  0  0  0  0
   11.0771   -1.7277   23.1718 C   0  0  0  0  0  0  0  0  0  0  0  0
   11.3268   -0.6079   23.9827 C   0  0  0  0  0  0  0  0  0  0  0  0
   12.5402    0.0750   23.8943 C   0  0  0  0  0  0  0  0  0  0  0  0
   13.5180   -0.3532   22.9996 C   0  0  0  0  0  0  0  0  0  0  0  0
   13.2855   -1.4643   22.1920 C   0  0  0  0  0  0  0  0  0  0  0  0
   12.0724   -2.1499   22.2760 C   0  0  0  0  0  0  0  0  0  0  0  0
   10.6707   -3.3570   25.4458 C   0  0  0  0  0  0  0  0  0  0  0  0
   10.5485   -4.6891   26.1640 C   0  0  0  0  0  0  0  0  0  0  0  0
  1  2  1  0
  2  3  2  0
  2  4  1  0
  4  5  1  0
  4  6  1  0
  6  7  1  0
  7  8  1  0
  8  9  1  0
  8 16  1  0
  9 10  1  0
 10 11  2  0
 11 12  1  0
 12 13  2  0
 13 14  1  0
 14 15  2  0
 15 10  1  0
 16 17  1  0
 17  4  1  0
M  END
>  <TransFSScore>  (35)
0.218954

>  <SuCOS_Score>  (35)
0.755282

>  <FeatureStein>  (35)
0.521117

>  <SCORE.norm>  (35)
-1.2322

>  <Max_SuCOS_Score>  (35)
0.755282

>  <Cum_SuCOS_Score>  (35)
4.808528

>  <TransFSScore_50nM>  (35)
0.015346

>  <TransFSScore_1uM>  (35)
0.633287

>  <TransFSScore_10nM>  (35)
0.034437

>  <TransFSScore_200nM>  (35)
0.192745

>  <TETHERED ATOMS>  (35)
5,4,6,7,8,9,10,16,17

$$$$
NC(=O)C1(O)CCN(Cc2ccccc2)CC1
     RDKit          3D

 17 18  0  0  0  0  0  0  0  0999 V2000
    7.5018   -6.1073   27.3750 N   0  0  0  0  0  0  0  0  0  0  0  0
    8.6984   -5.5354   27.4367 C   0  0  0  0  0  0  0  0  0  0  0  0
    9.2775   -5.1482   28.4449 O   0  0  0  0  0  0  0  0  0  0  0  0
    9.3233   -5.4003   26.0380 C   0  0  0  0  0  0  0  0  0  0  0  0
    9.8480   -6.6388   25.5613 O   0  0  0  0  0  0  0  0  0  0  0  0
    8.2247   -4.9784   25.0851 C   0  0  0  0  0  0  0  0  0  0  0  0
    8.7849   -4.4315   23.8017 C   0  0  0  0  0  0  0  0  0  0  0  0
    9.8071   -3.3786   24.0537 N   0  0  0  0  0  0  0  0  0  0  0  0
    9.9715   -2.3078   23.0727 C   0  0  0  0  0  0  0  0  0  0  0  0
   11.2890   -1.5998   23.0773 C   0  0  0  0  0  0  0  0  0  0  0  0
   12.3261   -2.0329   22.2343 C   0  0  0  0  0  0  0  0  0  0  0  0
   13.5618   -1.3853   22.2405 C   0  0  0  0  0  0  0  0  0  0  0  0
   13.7752   -0.2978   23.0842 C   0  0  0  0  0  0  0  0  0  0  0  0
   12.7545    0.1447   23.9228 C   0  0  0  0  0  0  0  0  0  0  0  0
   11.5169   -0.5010   23.9210 C   0  0  0  0  0  0  0  0  0  0  0  0
   10.1368   -3.0834   25.4751 C   0  0  0  0  0  0  0  0  0  0  0  0
   10.4776   -4.4074   26.1354 C   0  0  0  0  0  0  0  0  0  0  0  0
  1  2  1  0
  2  3  2  0
  2  4  1  0
  4  5  1  0
  4  6  1  0
  6  7  1  0
  7  8  1  0
  8  9  1  0
  8 16  1  0
  9 10  1  0
 10 11  2  0
 11 12  1  0
 12 13  2  0
 13 14  1  0
 14 15  2  0
 15 10  1  0
 16 17  1  0
 17  4  1  0
M  END
>  <TransFSScore>  (36)
0.119909

>  <SuCOS_Score>  (36)
0.731379

>  <FeatureStein>  (36)
0.506748

>  <SCORE.norm>  (36)
-1.21506

>  <Max_SuCOS_Score>  (36)
0.731379

>  <Cum_SuCOS_Score>  (36)
4.869602

>  <TransFSScore_50nM>  (36)
0.010409

>  <TransFSScore_1uM>  (36)
0.353869

>  <TransFSScore_10nM>  (36)
0.035495

>  <TransFSScore_200nM>  (36)
0.079864

>  <TETHERED ATOMS>  (36)
5,4,6,7,8,9,10,16,17

$$$$
NC(=O)C1(O)CCN(Cc2ccccc2)CC1
     RDKit          3D

 17 18  0  0  0  0  0  0  0  0999 V2000
    9.3412   -5.3257   28.4582 N   0  0  0  0  0  0  0  0  0  0  0  0
    8.4874   -4.9658   27.5074 C   0  0  0  0  0  0  0  0  0  0  0  0
    7.3158   -4.6386   27.6562 O   0  0  0  0  0  0  0  0  0  0  0  0
    9.1518   -5.0001   26.1209 C   0  0  0  0  0  0  0  0  0  0  0  0
    9.5802   -6.3131   25.7620 O   0  0  0  0  0  0  0  0  0  0  0  0
    8.1137   -4.5704   25.1056 C   0  0  0  0  0  0  0  0  0  0  0  0
    8.7459   -4.1809   23.7985 C   0  0  0  0  0  0  0  0  0  0  0  0
    9.8476   -3.1983   23.9930 N   0  0  0  0  0  0  0  0  0  0  0  0
   10.1232   -2.2306   22.9330 C   0  0  0  0  0  0  0  0  0  0  0  0
   11.4536   -1.5493   22.9856 C   0  0  0  0  0  0  0  0  0  0  0  0
   12.5237   -2.0295   22.2120 C   0  0  0  0  0  0  0  0  0  0  0  0
   13.7712   -1.4069   22.2638 C   0  0  0  0  0  0  0  0  0  0  0  0
   13.9638   -0.2978   23.0840 C   0  0  0  0  0  0  0  0  0  0  0  0
   12.9105    0.1913   23.8537 C   0  0  0  0  0  0  0  0  0  0  0  0
   11.6610   -0.4292   23.8062 C   0  0  0  0  0  0  0  0  0  0  0  0
   10.1700   -2.8134   25.3944 C   0  0  0  0  0  0  0  0  0  0  0  0
   10.3833   -4.1010   26.1700 C   0  0  0  0  0  0  0  0  0  0  0  0
  1  2  1  0
  2  3  2  0
  2  4  1  0
  4  5  1  0
  4  6  1  0
  6  7  1  0
  7  8  1  0
  8  9  1  0
  8 16  1  0
  9 10  1  0
 10 11  2  0
 11 12  1  0
 12 13  2  0
 13 14  1  0
 14 15  2  0
 15 10  1  0
 16 17  1  0
 17  4  1  0
M  END
>  <TransFSScore>  (37)
0.288799

>  <SuCOS_Score>  (37)
0.717089

>  <FeatureStein>  (37)
0.510058

>  <SCORE.norm>  (37)
-1.19451

>  <Max_SuCOS_Score>  (37)
0.717089

>  <Cum_SuCOS_Score>  (37)
4.829806

>  <TransFSScore_50nM>  (37)
0.059509

>  <TransFSScore_1uM>  (37)
0.65187

>  <TransFSScore_10nM>  (37)
0.129107

>  <TransFSScore_200nM>  (37)
0.314712

>  <TETHERED ATOMS>  (37)
5,4,6,7,8,9,10,16,17

$$$$
NC(=O)C1(O)CCN(Cc2ccccc2)CC1
     RDKit          3D

 17 18  0  0  0  0  0  0  0  0999 V2000
    9.4050   -5.3245   28.3896 N   0  0  0  0  0  0  0  0  0  0  0  0
    8.5249   -5.2509   27.3982 C   0  0  0  0  0  0  0  0  0  0  0  0
    7.3040   -5.2203   27.4992 O   0  0  0  0  0  0  0  0  0  0  0  0
    9.2288   -5.2032   26.0317 C   0  0  0  0  0  0  0  0  0  0  0  0
    9.7451   -6.4770   25.6478 O   0  0  0  0  0  0  0  0  0  0  0  0
    8.1957   -4.8046   24.9989 C   0  0  0  0  0  0  0  0  0  0  0  0
    8.8398   -4.3384   23.7230 C   0  0  0  0  0  0  0  0  0  0  0  0
    9.8749   -3.2989   23.9787 N   0  0  0  0  0  0  0  0  0  0  0  0
   10.1215   -2.2844   22.9560 C   0  0  0  0  0  0  0  0  0  0  0  0
   11.4505   -1.6002   23.0066 C   0  0  0  0  0  0  0  0  0  0  0  0
   11.6495   -0.5074   23.8669 C   0  0  0  0  0  0  0  0  0  0  0  0
   12.8826    0.1437   23.9121 C   0  0  0  0  0  0  0  0  0  0  0  0
   13.9304   -0.2896   23.1032 C   0  0  0  0  0  0  0  0  0  0  0  0
   13.7482   -1.3743   22.2481 C   0  0  0  0  0  0  0  0  0  0  0  0
   12.5159   -2.0280   22.1985 C   0  0  0  0  0  0  0  0  0  0  0  0
   10.1342   -2.9389   25.3997 C   0  0  0  0  0  0  0  0  0  0  0  0
   10.4024   -4.2349   26.1436 C   0  0  0  0  0  0  0  0  0  0  0  0
  1  2  1  0
  2  3  2  0
  2  4  1  0
  4  5  1  0
  4  6  1  0
  6  7  1  0
  7  8  1  0
  8  9  1  0
  8 16  1  0
  9 10  1  0
 10 11  2  0
 11 12  1  0
 12 13  2  0
 13 14  1  0
 14 15  2  0
 15 10  1  0
 16 17  1  0
 17  4  1  0
M  END
>  <TransFSScore>  (38)
0.255191

>  <SuCOS_Score>  (38)
0.704061

>  <FeatureStein>  (38)
0.500079

>  <SCORE.norm>  (38)
-1.19418

>  <Max_SuCOS_Score>  (38)
0.704061

>  <Cum_SuCOS_Score>  (38)
4.780544

>  <TransFSScore_50nM>  (38)
0.08838

>  <TransFSScore_1uM>  (38)
0.586253

>  <TransFSScore_10nM>  (38)
0.075548

>  <TransFSScore_200nM>  (38)
0.270584

>  <TETHERED ATOMS>  (38)
5,4,6,7,8,9,10,16,17

$$$$
NC(=O)C1(O)CCN(Cc2cscn2)CC1
     RDKit          3D

 16 17  0  0  0  0  0  0  0  0999 V2000
   10.0056   -4.8122   28.0642 N   0  0  0  0  0  0  0  0  0  0  0  0
    9.0001   -4.5031   27.2359 C   0  0  0  0  0  0  0  0  0  0  0  0
    8.1984   -3.6002   27.4431 O   0  0  0  0  0  0  0  0  0  0  0  0
    9.0169   -5.4355   25.9120 C   0  0  0  0  0  0  0  0  0  0  0  0
    8.7490   -6.6334   26.5609 O   0  0  0  0  0  0  0  0  0  0  0  0
   10.3616   -5.4506   25.2456 C   0  0  0  0  0  0  0  0  0  0  0  0
   10.7836   -4.0159   25.3013 C   0  0  0  0  0  0  0  0  0  0  0  0
    9.9025   -3.1568   24.4928 N   0  0  0  0  0  0  0  0  0  0  0  0
   10.1072   -1.7750   24.8973 C   0  0  0  0  0  0  0  0  0  0  0  0
   11.2677   -1.2809   24.1007 C   0  0  0  0  0  0  0  0  0  0  0  0
   11.9313   -1.8100   23.0196 C   0  0  0  0  0  0  0  0  0  0  0  0
   13.2261   -0.7635   22.5715 S   0  0  0  0  0  0  0  0  0  0  0  0
   12.8394    0.3454   23.8212 C   0  0  0  0  0  0  0  0  0  0  0  0
   11.8141   -0.0838   24.5182 N   0  0  0  0  0  0  0  0  0  0  0  0
    8.4618   -3.4903   24.4668 C   0  0  0  0  0  0  0  0  0  0  0  0
    7.9953   -4.8631   24.9794 C   0  0  0  0  0  0  0  0  0  0  0  0
  1  2  1  0
  2  3  2  0
  2  4  1  0
  4  5  1  0
  4  6  1  0
  6  7  1  0
  7  8  1  0
  8  9  1  0
  8 15  1  0
  9 10  1  0
 10 11  2  0
 11 12  1  0
 12 13  1  0
 13 14  2  0
 14 10  1  0
 15 16  1  0
 16  4  1  0
M  END
>  <TransFSScore>  (39)
0.140187

>  <SuCOS_Score>  (39)
0.652715

>  <FeatureStein>  (39)
0.557616

>  <SCORE.norm>  (39)
-1.34454

>  <Max_SuCOS_Score>  (39)
0.652715

>  <Cum_SuCOS_Score>  (39)
4.424995

>  <TransFSScore_50nM>  (39)
0.068959

>  <TransFSScore_1uM>  (39)
0.345646

>  <TransFSScore_10nM>  (39)
0.023097

>  <TransFSScore_200nM>  (39)
0.123046

>  <TETHERED ATOMS>  (39)
5,4,6,7,8,9,10,15,16

$$$$
NC(=O)C1(O)CCN(Cc2cscn2)CC1
     RDKit          3D

 16 17  0  0  0  0  0  0  0  0999 V2000
   10.1757   -4.8803   28.1072 N   0  0  0  0  0  0  0  0  0  0  0  0
    9.1579   -4.5766   27.2921 C   0  0  0  0  0  0  0  0  0  0  0  0
    8.3528   -3.6793   27.5108 O   0  0  0  0  0  0  0  0  0  0  0  0
    9.1643   -5.5067   25.9665 C   0  0  0  0  0  0  0  0  0  0  0  0
    8.9428   -6.7117   26.6198 O   0  0  0  0  0  0  0  0  0  0  0  0
   10.4917   -5.4876   25.2663 C   0  0  0  0  0  0  0  0  0  0  0  0
   10.8792   -4.0429   25.3139 C   0  0  0  0  0  0  0  0  0  0  0  0
    9.9568   -3.2051   24.5294 N   0  0  0  0  0  0  0  0  0  0  0  0
   10.1373   -1.8190   24.9312 C   0  0  0  0  0  0  0  0  0  0  0  0
   11.2945   -1.3089   24.1399 C   0  0  0  0  0  0  0  0  0  0  0  0
   12.0140   -1.8591   23.1061 C   0  0  0  0  0  0  0  0  0  0  0  0
   13.2682   -0.7732   22.6368 S   0  0  0  0  0  0  0  0  0  0  0  0
   12.7920    0.3780   23.8154 C   0  0  0  0  0  0  0  0  0  0  0  0
   11.7694   -0.0658   24.5073 N   0  0  0  0  0  0  0  0  0  0  0  0
    8.5246   -3.5742   24.5393 C   0  0  0  0  0  0  0  0  0  0  0  0
    8.1055   -4.9588   25.0610 C   0  0  0  0  0  0  0  0  0  0  0  0
  1  2  1  0
  2  3  2  0
  2  4  1  0
  4  5  1  0
  4  6  1  0
  6  7  1  0
  7  8  1  0
  8  9  1  0
  8 15  1  0
  9 10  1  0
 10 11  2  0
 11 12  1  0
 12 13  1  0
 13 14  2  0
 14 10  1  0
 15 16  1  0
 16  4  1  0
M  END
>  <TransFSScore>  (40)
0.14751

>  <SuCOS_Score>  (40)
0.634246

>  <FeatureStein>  (40)
0.521909

>  <SCORE.norm>  (40)
-1.34365

>  <Max_SuCOS_Score>  (40)
0.634246

>  <Cum_SuCOS_Score>  (40)
4.327663

>  <TransFSScore_50nM>  (40)
0.068551

>  <TransFSScore_1uM>  (40)
0.356913

>  <TransFSScore_10nM>  (40)
0.017532

>  <TransFSScore_200nM>  (40)
0.147043

>  <TETHERED ATOMS>  (40)
5,4,6,7,8,9,10,15,16

$$$$
COC(=O)C1(O)CCN(Cc2ccccc2)CC1
     RDKit          3D

 18 19  0  0  0  0  0  0  0  0999 V2000
    7.4423   -4.2003   29.0675 C   0  0  0  0  0  0  0  0  0  0  0  0
    8.0567   -4.2297   27.7750 O   0  0  0  0  0  0  0  0  0  0  0  0
    8.5241   -5.4552   27.4119 C   0  0  0  0  0  0  0  0  0  0  0  0
    8.4273   -6.4879   28.0605 O   0  0  0  0  0  0  0  0  0  0  0  0
    9.2378   -5.3724   26.0464 C   0  0  0  0  0  0  0  0  0  0  0  0
    9.8151   -6.6032   25.6162 O   0  0  0  0  0  0  0  0  0  0  0  0
    8.1948   -4.9869   25.0139 C   0  0  0  0  0  0  0  0  0  0  0  0
    8.8144   -4.4702   23.7377 C   0  0  0  0  0  0  0  0  0  0  0  0
    9.8098   -3.3996   24.0109 N   0  0  0  0  0  0  0  0  0  0  0  0
   10.0020   -2.3460   23.0033 C   0  0  0  0  0  0  0  0  0  0  0  0
   11.2981   -1.6054   23.0644 C   0  0  0  0  0  0  0  0  0  0  0  0
   12.3637   -1.9756   22.2268 C   0  0  0  0  0  0  0  0  0  0  0  0
   13.5825   -1.2993   22.2905 C   0  0  0  0  0  0  0  0  0  0  0  0
   13.7504   -0.2470   23.1873 C   0  0  0  0  0  0  0  0  0  0  0  0
   12.7005    0.1339   24.0199 C   0  0  0  0  0  0  0  0  0  0  0  0
   11.4794   -0.5395   23.9602 C   0  0  0  0  0  0  0  0  0  0  0  0
   10.0736   -3.0507   25.4293 C   0  0  0  0  0  0  0  0  0  0  0  0
   10.3757   -4.3533   26.1609 C   0  0  0  0  0  0  0  0  0  0  0  0
  1  2  1  0
  2  3  1  0
  3  4  2  0
  3  5  1  0
  5  6  1  0
  5  7  1  0
  7  8  1  0
  8  9  1  0
  9 10  1  0
  9 17  1  0
 10 11  1  0
 11 12  2  0
 12 13  1  0
 13 14  2  0
 14 15  1  0
 15 16  2  0
 16 11  1  0
 17 18  1  0
 18  5  1  0
M  END
>  <TransFSScore>  (41)
0.132181

>  <SuCOS_Score>  (41)
0.713158

>  <FeatureStein>  (41)
0.49278

>  <SCORE.norm>  (41)
-0.757026

>  <Max_SuCOS_Score>  (41)
0.713158

>  <Cum_SuCOS_Score>  (41)
4.921214

>  <TransFSScore_50nM>  (41)
0.016949

>  <TransFSScore_1uM>  (41)
0.343857

>  <TransFSScore_10nM>  (41)
0.038798

>  <TransFSScore_200nM>  (41)
0.129121

>  <TETHERED ATOMS>  (41)
6,5,7,8,9,10,11,17,18

$$$$
COC(=O)C1(O)CCN(Cc2ccccc2)CC1
     RDKit          3D

 18 19  0  0  0  0  0  0  0  0999 V2000
    7.4495   -4.0993   29.0633 C   0  0  0  0  0  0  0  0  0  0  0  0
    8.1263   -4.1427   27.8028 O   0  0  0  0  0  0  0  0  0  0  0  0
    8.5472   -5.3858   27.4428 C   0  0  0  0  0  0  0  0  0  0  0  0
    8.4250   -6.4099   28.1008 O   0  0  0  0  0  0  0  0  0  0  0  0
    9.2441   -5.3371   26.0671 C   0  0  0  0  0  0  0  0  0  0  0  0
    9.7871   -6.5864   25.6456 O   0  0  0  0  0  0  0  0  0  0  0  0
    8.1965   -4.9408   25.0434 C   0  0  0  0  0  0  0  0  0  0  0  0
    8.8106   -4.4551   23.7525 C   0  0  0  0  0  0  0  0  0  0  0  0
    9.8339   -3.4045   23.9985 N   0  0  0  0  0  0  0  0  0  0  0  0
   10.0368   -2.3686   22.9747 C   0  0  0  0  0  0  0  0  0  0  0  0
   11.3176   -1.6040   23.0567 C   0  0  0  0  0  0  0  0  0  0  0  0
   12.4049   -1.9569   22.2396 C   0  0  0  0  0  0  0  0  0  0  0  0
   13.6096   -1.2579   22.3230 C   0  0  0  0  0  0  0  0  0  0  0  0
   13.7419   -0.2000   23.2193 C   0  0  0  0  0  0  0  0  0  0  0  0
   12.6703    0.1638   24.0315 C   0  0  0  0  0  0  0  0  0  0  0  0
   11.4630   -0.5322   23.9521 C   0  0  0  0  0  0  0  0  0  0  0  0
   10.1249   -3.0436   25.4085 C   0  0  0  0  0  0  0  0  0  0  0  0
   10.4067   -4.3433   26.1532 C   0  0  0  0  0  0  0  0  0  0  0  0
  1  2  1  0
  2  3  1  0
  3  4  2  0
  3  5  1  0
  5  6  1  0
  5  7  1  0
  7  8  1  0
  8  9  1  0
  9 10  1  0
  9 17  1  0
 10 11  1  0
 11 12  2  0
 12 13  1  0
 13 14  2  0
 14 15  1  0
 15 16  2  0
 16 11  1  0
 17 18  1  0
 18  5  1  0
M  END
>  <TransFSScore>  (42)
0.130967

>  <SuCOS_Score>  (42)
0.712649

>  <FeatureStein>  (42)
0.494818

>  <SCORE.norm>  (42)
-0.756663

>  <Max_SuCOS_Score>  (42)
0.712649

>  <Cum_SuCOS_Score>  (42)
4.928949

>  <TransFSScore_50nM>  (42)
0.015206

>  <TransFSScore_1uM>  (42)
0.334317

>  <TransFSScore_10nM>  (42)
0.038804

>  <TransFSScore_200nM>  (42)
0.135541

>  <TETHERED ATOMS>  (42)
6,5,7,8,9,10,11,17,18

$$$$
COC(=O)C1(O)CCN(Cc2ccccc2)CC1
     RDKit          3D

 18 19  0  0  0  0  0  0  0  0999 V2000
    7.4470   -4.2315   29.1100 C   0  0  0  0  0  0  0  0  0  0  0  0
    8.0613   -4.2524   27.8173 O   0  0  0  0  0  0  0  0  0  0  0  0
    8.5027   -5.4813   27.4338 C   0  0  0  0  0  0  0  0  0  0  0  0
    8.3984   -6.5195   28.0727 O   0  0  0  0  0  0  0  0  0  0  0  0
    9.1971   -5.3952   26.0587 C   0  0  0  0  0  0  0  0  0  0  0  0
    9.7678   -6.6251   25.6172 O   0  0  0  0  0  0  0  0  0  0  0  0
    8.1399   -5.0066   25.0420 C   0  0  0  0  0  0  0  0  0  0  0  0
    8.7417   -4.4867   23.7585 C   0  0  0  0  0  0  0  0  0  0  0  0
    9.7412   -3.4173   24.0206 N   0  0  0  0  0  0  0  0  0  0  0  0
    9.9197   -2.3611   23.0131 C   0  0  0  0  0  0  0  0  0  0  0  0
   11.2185   -1.6239   23.0553 C   0  0  0  0  0  0  0  0  0  0  0  0
   12.2831   -2.0201   22.2283 C   0  0  0  0  0  0  0  0  0  0  0  0
   13.5043   -1.3468   22.2747 C   0  0  0  0  0  0  0  0  0  0  0  0
   13.6758   -0.2718   23.1435 C   0  0  0  0  0  0  0  0  0  0  0  0
   12.6270    0.1349   23.9652 C   0  0  0  0  0  0  0  0  0  0  0  0
   11.4034   -0.5353   23.9227 C   0  0  0  0  0  0  0  0  0  0  0  0
   10.0251   -3.0722   25.4360 C   0  0  0  0  0  0  0  0  0  0  0  0
   10.3369   -4.3768   26.1599 C   0  0  0  0  0  0  0  0  0  0  0  0
  1  2  1  0
  2  3  1  0
  3  4  2  0
  3  5  1  0
  5  6  1  0
  5  7  1  0
  7  8  1  0
  8  9  1  0
  9 10  1  0
  9 17  1  0
 10 11  1  0
 11 12  2  0
 12 13  1  0
 13 14  2  0
 14 15  1  0
 15 16  2  0
 16 11  1  0
 17 18  1  0
 18  5  1  0
M  END
>  <TransFSScore>  (43)
0.13398

>  <SuCOS_Score>  (43)
0.717911

>  <FeatureStein>  (43)
0.496991

>  <SCORE.norm>  (43)
-0.755689

>  <Max_SuCOS_Score>  (43)
0.717911

>  <Cum_SuCOS_Score>  (43)
4.966518

>  <TransFSScore_50nM>  (43)
0.018781

>  <TransFSScore_1uM>  (43)
0.355932

>  <TransFSScore_10nM>  (43)
0.040318

>  <TransFSScore_200nM>  (43)
0.120889

>  <TETHERED ATOMS>  (43)
6,5,7,8,9,10,11,17,18

$$$$
COC1CN(Cc2ccccc2)CCC1O
     RDKit          3D

 16 17  0  0  0  0  0  0  0  0999 V2000
    6.2735   -5.5330   25.9038 C   0  0  0  0  0  0  0  0  0  0  0  0
    7.3406   -4.7407   25.3860 O   0  0  0  0  0  0  0  0  0  0  0  0
    8.2850   -5.5054   24.6003 C   0  0  1  0  0  0  0  0  0  0  0  0
    8.8292   -4.4807   23.6051 C   0  0  0  0  0  0  0  0  0  0  0  0
    9.8221   -3.5317   24.2120 N   0  0  0  0  0  0  0  0  0  0  0  0
    9.4948   -2.1032   24.0947 C   0  0  0  0  0  0  0  0  0  0  0  0
   10.7855   -1.3285   24.0018 C   0  0  0  0  0  0  0  0  0  0  0  0
   11.5968   -1.4329   22.8605 C   0  0  0  0  0  0  0  0  0  0  0  0
   12.7840   -0.7056   22.7667 C   0  0  0  0  0  0  0  0  0  0  0  0
   13.1785    0.1255   23.8123 C   0  0  0  0  0  0  0  0  0  0  0  0
   12.3925    0.2260   24.9578 C   0  0  0  0  0  0  0  0  0  0  0  0
   11.2041   -0.4987   25.0566 C   0  0  0  0  0  0  0  0  0  0  0  0
   10.2952   -3.8759   25.5859 C   0  0  0  0  0  0  0  0  0  0  0  0
   10.6532   -5.3396   25.5609 C   0  0  0  0  0  0  0  0  0  0  0  0
    9.3795   -6.1490   25.4759 C   0  0  1  0  0  0  0  0  0  0  0  0
    8.8978   -6.2824   26.8093 O   0  0  0  0  0  0  0  0  0  0  0  0
  1  2  1  0
  3  2  1  1
  3  4  1  0
  4  5  1  0
  5  6  1  0
  5 13  1  0
  6  7  1  0
  7  8  2  0
  8  9  1  0
  9 10  2  0
 10 11  1  0
 11 12  2  0
 12  7  1  0
 13 14  1  0
 14 15  1  0
 15 16  1  1
 15  3  1  0
M  END
>  <TransFSScore>  (44)
0.131458

>  <SuCOS_Score>  (44)
0.605306

>  <FeatureStein>  (44)
0.501359

>  <SCORE.norm>  (44)
-0.646468

>  <Max_SuCOS_Score>  (44)
0.605306

>  <Cum_SuCOS_Score>  (44)
4.548326

>  <TransFSScore_50nM>  (44)
0.016184

>  <TransFSScore_1uM>  (44)
0.371469

>  <TransFSScore_10nM>  (44)
0.041383

>  <TransFSScore_200nM>  (44)
0.096795

>  <TETHERED ATOMS>  (44)
16,15,14,13,5,6,7,4,3

$$$$
COC1CN(Cc2ccccc2)CCC1O
     RDKit          3D

 16 17  0  0  0  0  0  0  0  0999 V2000
    6.2959   -5.5986   26.0424 C   0  0  0  0  0  0  0  0  0  0  0  0
    7.3103   -4.7838   25.4579 O   0  0  0  0  0  0  0  0  0  0  0  0
    8.2471   -5.5361   24.6514 C   0  0  1  0  0  0  0  0  0  0  0  0
    8.7391   -4.5099   23.6308 C   0  0  0  0  0  0  0  0  0  0  0  0
    9.7290   -3.5341   24.1987 N   0  0  0  0  0  0  0  0  0  0  0  0
    9.3676   -2.1141   24.0780 C   0  0  0  0  0  0  0  0  0  0  0  0
   10.6396   -1.3047   24.0330 C   0  0  0  0  0  0  0  0  0  0  0  0
   11.4236   -1.2767   22.8685 C   0  0  0  0  0  0  0  0  0  0  0  0
   12.5929   -0.5167   22.8203 C   0  0  0  0  0  0  0  0  0  0  0  0
   12.9968    0.2152   23.9342 C   0  0  0  0  0  0  0  0  0  0  0  0
   12.2382    0.1834   25.1020 C   0  0  0  0  0  0  0  0  0  0  0  0
   11.0677   -0.5745   25.1554 C   0  0  0  0  0  0  0  0  0  0  0  0
   10.2503   -3.8545   25.5609 C   0  0  0  0  0  0  0  0  0  0  0  0
   10.6388   -5.3104   25.5389 C   0  0  0  0  0  0  0  0  0  0  0  0
    9.3808   -6.1474   25.4997 C   0  0  1  0  0  0  0  0  0  0  0  0
    8.9421   -6.2778   26.8482 O   0  0  0  0  0  0  0  0  0  0  0  0
  1  2  1  0
  3  2  1  1
  3  4  1  0
  4  5  1  0
  5  6  1  0
  5 13  1  0
  6  7  1  0
  7  8  2  0
  8  9  1  0
  9 10  2  0
 10 11  1  0
 11 12  2  0
 12  7  1  0
 13 14  1  0
 14 15  1  0
 15 16  1  1
 15  3  1  0
M  END
>  <TransFSScore>  (45)
0.134655

>  <SuCOS_Score>  (45)
0.574012

>  <FeatureStein>  (45)
0.508315

>  <SCORE.norm>  (45)
-0.642953

>  <Max_SuCOS_Score>  (45)
0.574012

>  <Cum_SuCOS_Score>  (45)
4.457999

>  <TransFSScore_50nM>  (45)
0.018675

>  <TransFSScore_1uM>  (45)
0.379859

>  <TransFSScore_10nM>  (45)
0.03954

>  <TransFSScore_200nM>  (45)
0.100547

>  <TETHERED ATOMS>  (45)
16,15,14,13,5,6,7,4,3

$$$$
COC1CN(Cc2ccccc2)CCC1O
     RDKit          3D

 16 17  0  0  0  0  0  0  0  0999 V2000
    6.3102   -5.6227   25.9168 C   0  0  0  0  0  0  0  0  0  0  0  0
    7.3321   -4.7868   25.3770 O   0  0  0  0  0  0  0  0  0  0  0  0
    8.2557   -5.5007   24.5219 C   0  0  1  0  0  0  0  0  0  0  0  0
    8.7363   -4.4271   23.5457 C   0  0  0  0  0  0  0  0  0  0  0  0
    9.7364   -3.4819   24.1464 N   0  0  0  0  0  0  0  0  0  0  0  0
    9.3771   -2.0571   24.1000 C   0  0  0  0  0  0  0  0  0  0  0  0
   10.6500   -1.2500   24.0437 C   0  0  0  0  0  0  0  0  0  0  0  0
   11.0769   -0.5166   25.1624 C   0  0  0  0  0  0  0  0  0  0  0  0
   12.2619    0.2189   25.1169 C   0  0  0  0  0  0  0  0  0  0  0  0
   13.0280    0.2378   23.9539 C   0  0  0  0  0  0  0  0  0  0  0  0
   12.6083   -0.4710   22.8308 C   0  0  0  0  0  0  0  0  0  0  0  0
   11.4244   -1.2086   22.8711 C   0  0  0  0  0  0  0  0  0  0  0  0
   10.2756   -3.8692   25.4841 C   0  0  0  0  0  0  0  0  0  0  0  0
   10.6600   -5.3230   25.3859 C   0  0  0  0  0  0  0  0  0  0  0  0
    9.3995   -6.1548   25.3236 C   0  0  1  0  0  0  0  0  0  0  0  0
    8.9791   -6.3497   26.6701 O   0  0  0  0  0  0  0  0  0  0  0  0
  1  2  1  0
  3  2  1  1
  3  4  1  0
  4  5  1  0
  5  6  1  0
  5 13  1  0
  6  7  1  0
  7  8  2  0
  8  9  1  0
  9 10  2  0
 10 11  1  0
 11 12  2  0
 12  7  1  0
 13 14  1  0
 14 15  1  0
 15 16  1  1
 15  3  1  0
M  END
>  <TransFSScore>  (46)
0.133307

>  <SuCOS_Score>  (46)
0.565585

>  <FeatureStein>  (46)
0.494005

>  <SCORE.norm>  (46)
-0.642731

>  <Max_SuCOS_Score>  (46)
0.565585

>  <Cum_SuCOS_Score>  (46)
4.447695

>  <TransFSScore_50nM>  (46)
0.016262

>  <TransFSScore_1uM>  (46)
0.375984

>  <TransFSScore_10nM>  (46)
0.038152

>  <TransFSScore_200nM>  (46)
0.102829

>  <TETHERED ATOMS>  (46)
16,15,14,13,5,6,7,4,3

$$$$
COC1CN(Cc2ccccc2)CCC1O
     RDKit          3D

 16 17  0  0  0  0  0  0  0  0999 V2000
    6.3472   -5.6221   26.0638 C   0  0  0  0  0  0  0  0  0  0  0  0
    7.3399   -4.7952   25.4595 O   0  0  0  0  0  0  0  0  0  0  0  0
    8.2402   -5.5288   24.5963 C   0  0  1  0  0  0  0  0  0  0  0  0
    8.6950   -4.4776   23.5839 C   0  0  0  0  0  0  0  0  0  0  0  0
    9.7111   -3.5202   24.1367 N   0  0  0  0  0  0  0  0  0  0  0  0
    9.3511   -2.0964   24.0680 C   0  0  0  0  0  0  0  0  0  0  0  0
   10.6239   -1.2888   24.0178 C   0  0  0  0  0  0  0  0  0  0  0  0
   11.0169   -0.5119   25.1195 C   0  0  0  0  0  0  0  0  0  0  0  0
   12.2016    0.2243   25.0803 C   0  0  0  0  0  0  0  0  0  0  0  0
   13.0013    0.2007   23.9402 C   0  0  0  0  0  0  0  0  0  0  0  0
   12.6156   -0.5517   22.8334 C   0  0  0  0  0  0  0  0  0  0  0  0
   11.4321   -1.2903   22.8675 C   0  0  0  0  0  0  0  0  0  0  0  0
   10.2855   -3.8780   25.4678 C   0  0  0  0  0  0  0  0  0  0  0  0
   10.6667   -5.3341   25.3919 C   0  0  0  0  0  0  0  0  0  0  0  0
    9.4047   -6.1659   25.3817 C   0  0  1  0  0  0  0  0  0  0  0  0
    9.0202   -6.3304   26.7429 O   0  0  0  0  0  0  0  0  0  0  0  0
  1  2  1  0
  3  2  1  1
  3  4  1  0
  4  5  1  0
  5  6  1  0
  5 13  1  0
  6  7  1  0
  7  8  2  0
  8  9  1  0
  9 10  2  0
 10 11  1  0
 11 12  2  0
 12  7  1  0
 13 14  1  0
 14 15  1  0
 15 16  1  1
 15  3  1  0
M  END
>  <TransFSScore>  (47)
0.137273

>  <SuCOS_Score>  (47)
0.566193

>  <FeatureStein>  (47)
0.504872

>  <SCORE.norm>  (47)
-0.639643

>  <Max_SuCOS_Score>  (47)
0.566193

>  <Cum_SuCOS_Score>  (47)
4.476573

>  <TransFSScore_50nM>  (47)
0.019036

>  <TransFSScore_1uM>  (47)
0.385227

>  <TransFSScore_10nM>  (47)
0.038818

>  <TransFSScore_200nM>  (47)
0.106011

>  <TETHERED ATOMS>  (47)
16,15,14,13,5,6,7,4,3

$$$$
COC1CN(Cc2ccccc2)CCC1O
     RDKit          3D

 16 17  0  0  0  0  0  0  0  0999 V2000
    6.0484   -4.6483   24.8495 C   0  0  0  0  0  0  0  0  0  0  0  0
    7.3328   -4.7819   25.4553 O   0  0  0  0  0  0  0  0  0  0  0  0
    8.2733   -5.5139   24.6346 C   0  0  1  0  0  0  0  0  0  0  0  0
    8.7842   -4.4580   23.6543 C   0  0  0  0  0  0  0  0  0  0  0  0
    9.7745   -3.5090   24.2653 N   0  0  0  0  0  0  0  0  0  0  0  0
    9.4245   -2.0832   24.1881 C   0  0  0  0  0  0  0  0  0  0  0  0
   10.7009   -1.2891   24.0640 C   0  0  0  0  0  0  0  0  0  0  0  0
   11.4417   -1.3159   22.8714 C   0  0  0  0  0  0  0  0  0  0  0  0
   12.6150   -0.5704   22.7498 C   0  0  0  0  0  0  0  0  0  0  0  0
   13.0659    0.2016   23.8177 C   0  0  0  0  0  0  0  0  0  0  0  0
   12.3507    0.2244   25.0127 C   0  0  0  0  0  0  0  0  0  0  0  0
   11.1764   -0.5188   25.1395 C   0  0  0  0  0  0  0  0  0  0  0  0
   10.2779   -3.8784   25.6218 C   0  0  0  0  0  0  0  0  0  0  0  0
   10.6564   -5.3357   25.5556 C   0  0  0  0  0  0  0  0  0  0  0  0
    9.3930   -6.1615   25.4745 C   0  0  1  0  0  0  0  0  0  0  0  0
    8.9381   -6.3334   26.8129 O   0  0  0  0  0  0  0  0  0  0  0  0
  1  2  1  0
  3  2  1  1
  3  4  1  0
  4  5  1  0
  5  6  1  0
  5 13  1  0
  6  7  1  0
  7  8  2  0
  8  9  1  0
  9 10  2  0
 10 11  1  0
 11 12  2  0
 12  7  1  0
 13 14  1  0
 14 15  1  0
 15 16  1  1
 15  3  1  0
M  END
>  <TransFSScore>  (48)
0.146273

>  <SuCOS_Score>  (48)
0.587647

>  <FeatureStein>  (48)
0.513294

>  <SCORE.norm>  (48)
-0.629064

>  <Max_SuCOS_Score>  (48)
0.587647

>  <Cum_SuCOS_Score>  (48)
4.501331

>  <TransFSScore_50nM>  (48)
0.017823

>  <TransFSScore_1uM>  (48)
0.393407

>  <TransFSScore_10nM>  (48)
0.042847

>  <TransFSScore_200nM>  (48)
0.131015

>  <TETHERED ATOMS>  (48)
16,15,14,13,5,6,7,4,3

$$$$
COC1CN(Cc2ccccc2)CCC1O
     RDKit          3D

 16 17  0  0  0  0  0  0  0  0999 V2000
    6.0697   -4.5809   24.8753 C   0  0  0  0  0  0  0  0  0  0  0  0
    7.3856   -4.6813   25.4167 O   0  0  0  0  0  0  0  0  0  0  0  0
    8.2918   -5.4263   24.5696 C   0  0  1  0  0  0  0  0  0  0  0  0
    8.8060   -4.3727   23.5886 C   0  0  0  0  0  0  0  0  0  0  0  0
    9.8302   -3.4523   24.1874 N   0  0  0  0  0  0  0  0  0  0  0  0
    9.5113   -2.0183   24.1307 C   0  0  0  0  0  0  0  0  0  0  0  0
   10.8054   -1.2496   24.0338 C   0  0  0  0  0  0  0  0  0  0  0  0
   11.5900   -1.3221   22.8715 C   0  0  0  0  0  0  0  0  0  0  0  0
   12.7801   -0.6002   22.7744 C   0  0  0  0  0  0  0  0  0  0  0  0
   13.2043    0.1936   23.8372 C   0  0  0  0  0  0  0  0  0  0  0  0
   12.4452    0.2618   25.0030 C   0  0  0  0  0  0  0  0  0  0  0  0
   11.2539   -0.4577   25.1052 C   0  0  0  0  0  0  0  0  0  0  0  0
   10.3533   -3.8463   25.5295 C   0  0  0  0  0  0  0  0  0  0  0  0
   10.6970   -5.3110   25.4417 C   0  0  0  0  0  0  0  0  0  0  0  0
    9.4138   -6.1073   25.3797 C   0  0  1  0  0  0  0  0  0  0  0  0
    8.9831   -6.2819   26.7257 O   0  0  0  0  0  0  0  0  0  0  0  0
  1  2  1  0
  3  2  1  1
  3  4  1  0
  4  5  1  0
  5  6  1  0
  5 13  1  0
  6  7  1  0
  7  8  2  0
  8  9  1  0
  9 10  2  0
 10 11  1  0
 11 12  2  0
 12  7  1  0
 13 14  1  0
 14 15  1  0
 15 16  1  1
 15  3  1  0
M  END
>  <TransFSScore>  (49)
0.140057

>  <SuCOS_Score>  (49)
0.600316

>  <FeatureStein>  (49)
0.497958

>  <SCORE.norm>  (49)
-0.628237

>  <Max_SuCOS_Score>  (49)
0.600316

>  <Cum_SuCOS_Score>  (49)
4.523926

>  <TransFSScore_50nM>  (49)
0.01203

>  <TransFSScore_1uM>  (49)
0.385529

>  <TransFSScore_10nM>  (49)
0.048394

>  <TransFSScore_200nM>  (49)
0.114276

>  <TETHERED ATOMS>  (49)
16,15,14,13,5,6,7,4,3

$$$$
COC1CN(Cc2ccccc2)CCC1O
     RDKit          3D

 16 17  0  0  0  0  0  0  0  0999 V2000
    6.0677   -4.6007   24.6912 C   0  0  0  0  0  0  0  0  0  0  0  0
    7.3353   -4.7265   25.3331 O   0  0  0  0  0  0  0  0  0  0  0  0
    8.2988   -5.4648   24.5457 C   0  0  1  0  0  0  0  0  0  0  0  0
    8.8404   -4.4159   23.5745 C   0  0  0  0  0  0  0  0  0  0  0  0
    9.8133   -3.4643   24.2089 N   0  0  0  0  0  0  0  0  0  0  0  0
    9.4680   -2.0385   24.1122 C   0  0  0  0  0  0  0  0  0  0  0  0
   10.7489   -1.2458   24.0365 C   0  0  0  0  0  0  0  0  0  0  0  0
   11.1765   -0.4795   25.1326 C   0  0  0  0  0  0  0  0  0  0  0  0
   12.3688    0.2428   25.0696 C   0  0  0  0  0  0  0  0  0  0  0  0
   13.1416    0.2156   23.9113 C   0  0  0  0  0  0  0  0  0  0  0  0
   12.7214   -0.5264   22.8099 C   0  0  0  0  0  0  0  0  0  0  0  0
   11.5303   -1.2510   22.8678 C   0  0  0  0  0  0  0  0  0  0  0  0
   10.2754   -3.8257   25.5822 C   0  0  0  0  0  0  0  0  0  0  0  0
   10.6535   -5.2838   25.5365 C   0  0  0  0  0  0  0  0  0  0  0  0
    9.3920   -6.1086   25.4228 C   0  0  1  0  0  0  0  0  0  0  0  0
    8.8969   -6.2714   26.7481 O   0  0  0  0  0  0  0  0  0  0  0  0
  1  2  1  0
  3  2  1  1
  3  4  1  0
  4  5  1  0
  5  6  1  0
  5 13  1  0
  6  7  1  0
  7  8  2  0
  8  9  1  0
  9 10  2  0
 10 11  1  0
 11 12  2  0
 12  7  1  0
 13 14  1  0
 14 15  1  0
 15 16  1  1
 15  3  1  0
M  END
>  <TransFSScore>  (50)
0.138805

>  <SuCOS_Score>  (50)
0.590046

>  <FeatureStein>  (50)
0.495581

>  <SCORE.norm>  (50)
-0.625802

>  <Max_SuCOS_Score>  (50)
0.590046

>  <Cum_SuCOS_Score>  (50)
4.483552

>  <TransFSScore_50nM>  (50)
0.014273

>  <TransFSScore_1uM>  (50)
0.381061

>  <TransFSScore_10nM>  (50)
0.04658

>  <TransFSScore_200nM>  (50)
0.113306

>  <TETHERED ATOMS>  (50)
16,15,14,13,5,6,7,4,3

$$$$
COC1CN(Cc2ccccc2)CCC1O
     RDKit          3D

 16 17  0  0  0  0  0  0  0  0999 V2000
    6.1096   -5.6643   25.7945 C   0  0  0  0  0  0  0  0  0  0  0  0
    7.1430   -4.7957   25.3495 O   0  0  0  0  0  0  0  0  0  0  0  0
    8.1733   -5.4812   24.6030 C   0  0  1  0  0  0  0  0  0  0  0  0
    8.7616   -4.4324   23.6451 C   0  0  0  0  0  0  0  0  0  0  0  0
    9.8175   -3.5914   24.1872 N   0  0  0  0  0  0  0  0  0  0  0  0
    9.6467   -2.1793   24.0053 C   0  0  0  0  0  0  0  0  0  0  0  0
   10.9861   -1.5607   23.6649 C   0  0  0  0  0  0  0  0  0  0  0  0
   11.7669   -2.0635   22.6117 C   0  0  0  0  0  0  0  0  0  0  0  0
   12.9914   -1.4759   22.2899 C   0  0  0  0  0  0  0  0  0  0  0  0
   13.4479   -0.3755   23.0128 C   0  0  0  0  0  0  0  0  0  0  0  0
   12.6810    0.1381   24.0572 C   0  0  0  0  0  0  0  0  0  0  0  0
   11.4561   -0.4489   24.3806 C   0  0  0  0  0  0  0  0  0  0  0  0
   10.3162   -3.9378   25.5032 C   0  0  0  0  0  0  0  0  0  0  0  0
   10.5629   -5.4308   25.5179 C   0  0  0  0  0  0  0  0  0  0  0  0
    9.2312   -6.1481   25.5055 C   0  0  1  0  0  0  0  0  0  0  0  0
    8.7619   -6.2101   26.8548 O   0  0  0  0  0  0  0  0  0  0  0  0
  1  2  1  0
  3  2  1  1
  3  4  1  0
  4  5  1  0
  5  6  1  0
  5 13  1  0
  6  7  1  0
  7  8  2  0
  8  9  1  0
  9 10  2  0
 10 11  1  0
 11 12  2  0
 12  7  1  0
 13 14  1  0
 14 15  1  0
 15 16  1  1
 15  3  1  0
M  END
>  <TransFSScore>  (51)
0.140895

>  <SuCOS_Score>  (51)
0.689741

>  <FeatureStein>  (51)
0.548926

>  <SCORE.norm>  (51)
-0.612813

>  <Max_SuCOS_Score>  (51)
0.689741

>  <Cum_SuCOS_Score>  (51)
4.872089

>  <TransFSScore_50nM>  (51)
0.026084

>  <TransFSScore_1uM>  (51)
0.383719

>  <TransFSScore_10nM>  (51)
0.046105

>  <TransFSScore_200nM>  (51)
0.107673

>  <TETHERED ATOMS>  (51)
16,15,14,13,5,6,7,4,3

$$$$
COC1CN(Cc2nccs2)CCC1O
     RDKit          3D

 15 16  0  0  0  0  0  0  0  0999 V2000
    7.1070   -5.9305   27.7303 C   0  0  0  0  0  0  0  0  0  0  0  0
    7.6576   -5.6032   26.4541 O   0  0  0  0  0  0  0  0  0  0  0  0
    8.3929   -4.3759   26.4518 C   0  0  2  0  0  0  0  0  0  0  0  0
    8.5281   -3.9563   24.9603 C   0  0  0  0  0  0  0  0  0  0  0  0
    9.9067   -3.4205   24.6458 N   0  0  0  0  0  0  0  0  0  0  0  0
   10.0420   -2.6128   23.4246 C   0  0  0  0  0  0  0  0  0  0  0  0
   11.1903   -1.6577   23.3652 C   0  0  0  0  0  0  0  0  0  0  0  0
   11.4326   -0.6499   24.1916 N   0  0  0  0  0  0  0  0  0  0  0  0
   12.6030    0.0496   23.9383 C   0  0  0  0  0  0  0  0  0  0  0  0
   13.2906   -0.4601   22.8626 C   0  0  0  0  0  0  0  0  0  0  0  0
   12.4563   -1.8136   22.2139 S   0  0  0  0  0  0  0  0  0  0  0  0
   11.0884   -4.2354   25.0801 C   0  0  0  0  0  0  0  0  0  0  0  0
   10.7011   -5.3083   26.0684 C   0  0  0  0  0  0  0  0  0  0  0  0
    9.7754   -4.6125   27.0113 C   0  0  2  0  0  0  0  0  0  0  0  0
   10.0280   -4.8026   28.3516 O   0  0  0  0  0  0  0  0  0  0  0  0
  1  2  1  0
  3  2  1  6
  3  4  1  0
  4  5  1  0
  5  6  1  0
  5 12  1  0
  6  7  1  0
  7  8  2  0
  8  9  1  0
  9 10  2  0
 10 11  1  0
 11  7  1  0
 12 13  1  0
 13 14  1  0
 14 15  1  1
 14  3  1  0
M  END
>  <TransFSScore>  (52)
0.110761

>  <SuCOS_Score>  (52)
0.618797

>  <FeatureStein>  (52)
0.554729

>  <SCORE.norm>  (52)
-0.703956

>  <Max_SuCOS_Score>  (52)
0.618797

>  <Cum_SuCOS_Score>  (52)
4.228894

>  <TransFSScore_50nM>  (52)
0.023696

>  <TransFSScore_1uM>  (52)
0.30094

>  <TransFSScore_10nM>  (52)
0.005238

>  <TransFSScore_200nM>  (52)
0.113169

>  <TETHERED ATOMS>  (52)
15,14,13,12,5,6,7,4,3

$$$$
OC1(C(F)(F)F)CCN(Cc2cscn2)CC1
     RDKit          3D

 17 18  0  0  0  0  0  0  0  0999 V2000
    8.9104   -6.6438   26.5267 O   0  0  0  0  0  0  0  0  0  0  0  0
    9.1125   -5.3973   25.9570 C   0  0  0  0  0  0  0  0  0  0  0  0
    8.9618   -4.5081   27.2908 C   0  0  0  0  0  0  0  0  0  0  0  0
    8.9554   -3.1718   27.0922 F   0  0  0  0  0  0  0  0  0  0  0  0
    7.7915   -4.7837   27.9209 F   0  0  0  0  0  0  0  0  0  0  0  0
    9.9678   -4.7644   28.1623 F   0  0  0  0  0  0  0  0  0  0  0  0
   10.4763   -5.3663   25.3123 C   0  0  0  0  0  0  0  0  0  0  0  0
   10.8769   -3.9293   25.3515 C   0  0  0  0  0  0  0  0  0  0  0  0
    9.9687   -3.1078   24.5524 N   0  0  0  0  0  0  0  0  0  0  0  0
   10.1603   -1.7004   24.8633 C   0  0  0  0  0  0  0  0  0  0  0  0
   11.3329   -1.2261   24.0742 C   0  0  0  0  0  0  0  0  0  0  0  0
   12.0218   -1.8114   23.0374 C   0  0  0  0  0  0  0  0  0  0  0  0
   13.3202   -0.7886   22.5535 S   0  0  0  0  0  0  0  0  0  0  0  0
   12.9163    0.3808   23.7388 C   0  0  0  0  0  0  0  0  0  0  0  0
   11.8697   -0.0040   24.4364 N   0  0  0  0  0  0  0  0  0  0  0  0
    8.5411   -3.4663   24.4800 C   0  0  0  0  0  0  0  0  0  0  0  0
    8.1087   -4.8576   24.9784 C   0  0  0  0  0  0  0  0  0  0  0  0
  1  2  1  0
  2  3  1  0
  2  7  1  0
  3  4  1  0
  3  5  1  0
  3  6  1  0
  7  8  1  0
  8  9  1  0
  9 10  1  0
  9 16  1  0
 10 11  1  0
 11 12  2  0
 12 13  1  0
 13 14  1  0
 14 15  2  0
 15 11  1  0
 16 17  1  0
 17  2  1  0
M  END
>  <TransFSScore>  (53)
0.122144

>  <SuCOS_Score>  (53)
0.65495

>  <FeatureStein>  (53)
0.583757

>  <SCORE.norm>  (53)
-0.608025

>  <Max_SuCOS_Score>  (53)
0.65495

>  <Cum_SuCOS_Score>  (53)
4.422384

>  <TransFSScore_50nM>  (53)
0.011163

>  <TransFSScore_1uM>  (53)
0.168867

>  <TransFSScore_10nM>  (53)
0.015889

>  <TransFSScore_200nM>  (53)
0.292656

>  <TETHERED ATOMS>  (53)
1,2,7,8,9,10,11,16,17

$$$$
O=C(Cc1cccs1)N1CCC(O)(C(F)(F)F)CC1
     RDKit          3D

 19 20  0  0  0  0  0  0  0  0999 V2000
    8.4417   -2.3569   23.2517 O   0  0  0  0  0  0  0  0  0  0  0  0
    9.5177   -2.8681   23.4902 C   0  0  0  0  0  0  0  0  0  0  0  0
   10.8420   -2.6021   22.8279 C   0  0  0  0  0  0  0  0  0  0  0  0
   11.5471   -1.4501   23.4723 C   0  0  0  0  0  0  0  0  0  0  0  0
   11.2323   -0.7914   24.6448 C   0  0  0  0  0  0  0  0  0  0  0  0
   12.1442    0.2669   24.9287 C   0  0  0  0  0  0  0  0  0  0  0  0
   13.1179    0.3855   23.9629 C   0  0  0  0  0  0  0  0  0  0  0  0
   12.9304   -0.7701   22.7193 S   0  0  0  0  0  0  0  0  0  0  0  0
    9.4377   -3.7359   24.6293 N   0  0  0  0  0  0  0  0  0  0  0  0
   10.6900   -3.9077   25.3881 C   0  0  0  0  0  0  0  0  0  0  0  0
   10.5706   -5.0179   26.3884 C   0  0  0  0  0  0  0  0  0  0  0  0
    9.2183   -4.8611   27.0405 C   0  0  0  0  0  0  0  0  0  0  0  0
    9.2054   -5.4517   28.2890 O   0  0  0  0  0  0  0  0  0  0  0  0
    8.8879   -3.3584   27.5070 C   0  0  0  0  0  0  0  0  0  0  0  0
    7.8387   -2.8443   26.8378 F   0  0  0  0  0  0  0  0  0  0  0  0
    9.9157   -2.5006   27.3306 F   0  0  0  0  0  0  0  0  0  0  0  0
    8.5942   -3.3574   28.8276 F   0  0  0  0  0  0  0  0  0  0  0  0
    8.1355   -5.2856   26.0570 C   0  0  0  0  0  0  0  0  0  0  0  0
    8.4570   -4.8467   24.6096 C   0  0  0  0  0  0  0  0  0  0  0  0
  1  2  2  0
  2  3  1  0
  2  9  1  0
  3  4  1  0
  4  5  2  0
  5  6  1  0
  6  7  2  0
  7  8  1  0
  8  4  1  0
  9 10  1  0
 10 11  1  0
 11 12  1  0
 12 13  1  0
 12 14  1  0
 12 18  1  0
 14 15  1  0
 14 16  1  0
 14 17  1  0
 18 19  1  0
 19  9  1  0
M  END
>  <TransFSScore>  (54)
0.105697

>  <SuCOS_Score>  (54)
0.653326

>  <FeatureStein>  (54)
0.516885

>  <SCORE.norm>  (54)
-0.704584

>  <Max_SuCOS_Score>  (54)
0.653326

>  <Cum_SuCOS_Score>  (54)
4.732636

>  <TransFSScore_50nM>  (54)
0.006393

>  <TransFSScore_1uM>  (54)
0.20882

>  <TransFSScore_10nM>  (54)
0.028751

>  <TransFSScore_200nM>  (54)
0.178825

>  <TETHERED ATOMS>  (54)
13,12,11,10,9,2,3,19,18

$$$$
O[C@H]1CN(Cc2ccccc2)CC[C@H]1O
     RDKit          3D

 15 16  0  0  0  0  0  0  0  0999 V2000
    7.2680   -4.8535   25.4143 O   0  0  0  0  0  0  0  0  0  0  0  0
    8.2864   -5.4653   24.5826 C   0  0  1  0  0  0  0  0  0  0  0  0
    8.8696   -4.4007   23.6446 C   0  0  0  0  0  0  0  0  0  0  0  0
    9.8775   -3.5406   24.2378 N   0  0  0  0  0  0  0  0  0  0  0  0
    9.7061   -2.1299   24.0525 C   0  0  0  0  0  0  0  0  0  0  0  0
   11.0284   -1.5110   23.6558 C   0  0  0  0  0  0  0  0  0  0  0  0
   11.5528   -0.4154   24.3606 C   0  0  0  0  0  0  0  0  0  0  0  0
   12.7830    0.1385   24.0029 C   0  0  0  0  0  0  0  0  0  0  0  0
   13.5066   -0.3987   22.9402 C   0  0  0  0  0  0  0  0  0  0  0  0
   13.0014   -1.4893   22.2348 C   0  0  0  0  0  0  0  0  0  0  0  0
   11.7708   -2.0446   22.5912 C   0  0  0  0  0  0  0  0  0  0  0  0
   10.3650   -3.8953   25.5579 C   0  0  0  0  0  0  0  0  0  0  0  0
   10.6341   -5.3854   25.5741 C   0  0  0  0  0  0  0  0  0  0  0  0
    9.3220   -6.1289   25.4990 C   0  0  1  0  0  0  0  0  0  0  0  0
    8.7924   -6.1894   26.8297 O   0  0  0  0  0  0  0  0  0  0  0  0
  2  1  1  1
  2  3  1  0
  3  4  1  0
  4  5  1  0
  4 12  1  0
  5  6  1  0
  6  7  2  0
  7  8  1  0
  8  9  2  0
  9 10  1  0
 10 11  2  0
 11  6  1  0
 12 13  1  0
 13 14  1  0
 14 15  1  1
 14  2  1  0
M  END
>  <TransFSScore>  (55)
0.117318

>  <SuCOS_Score>  (55)
0.706563

>  <FeatureStein>  (55)
0.522846

>  <SCORE.norm>  (55)
-0.847862

>  <Max_SuCOS_Score>  (55)
0.706563

>  <Cum_SuCOS_Score>  (55)
4.888574

>  <TransFSScore_50nM>  (55)
0.004868

>  <TransFSScore_1uM>  (55)
0.325606

>  <TransFSScore_10nM>  (55)
0.023376

>  <TransFSScore_200nM>  (55)
0.115422

>  <TETHERED ATOMS>  (55)
15,14,13,12,4,5,6,3,2

$$$$
O[C@H]1CN(Cc2ccccc2)CC[C@H]1O
     RDKit          3D

 15 16  0  0  0  0  0  0  0  0999 V2000
    7.2790   -4.8589   25.4907 O   0  0  0  0  0  0  0  0  0  0  0  0
    8.2666   -5.4778   24.6276 C   0  0  1  0  0  0  0  0  0  0  0  0
    8.8248   -4.4182   23.6690 C   0  0  0  0  0  0  0  0  0  0  0  0
    9.8560   -3.5625   24.2275 N   0  0  0  0  0  0  0  0  0  0  0  0
    9.6863   -2.1511   24.0450 C   0  0  0  0  0  0  0  0  0  0  0  0
   11.0089   -1.5333   23.6480 C   0  0  0  0  0  0  0  0  0  0  0  0
   11.5416   -0.4476   24.3619 C   0  0  0  0  0  0  0  0  0  0  0  0
   12.7720    0.1052   24.0037 C   0  0  0  0  0  0  0  0  0  0  0  0
   13.4878   -0.4232   22.9314 C   0  0  0  0  0  0  0  0  0  0  0  0
   12.9745   -1.5040   22.2168 C   0  0  0  0  0  0  0  0  0  0  0  0
   11.7435   -2.0582   22.5737 C   0  0  0  0  0  0  0  0  0  0  0  0
   10.3841   -3.9174   25.5318 C   0  0  0  0  0  0  0  0  0  0  0  0
   10.6457   -5.4089   25.5422 C   0  0  0  0  0  0  0  0  0  0  0  0
    9.3278   -6.1453   25.5112 C   0  0  1  0  0  0  0  0  0  0  0  0
    8.8414   -6.2006   26.8585 O   0  0  0  0  0  0  0  0  0  0  0  0
  2  1  1  1
  2  3  1  0
  3  4  1  0
  4  5  1  0
  4 12  1  0
  5  6  1  0
  6  7  2  0
  7  8  1  0
  8  9  2  0
  9 10  1  0
 10 11  2  0
 11  6  1  0
 12 13  1  0
 13 14  1  0
 14 15  1  1
 14  2  1  0
M  END
>  <TransFSScore>  (56)
0.116904

>  <SuCOS_Score>  (56)
0.702338

>  <FeatureStein>  (56)
0.526059

>  <SCORE.norm>  (56)
-0.847468

>  <Max_SuCOS_Score>  (56)
0.702338

>  <Cum_SuCOS_Score>  (56)
4.876515

>  <TransFSScore_50nM>  (56)
0.004894

>  <TransFSScore_1uM>  (56)
0.32279

>  <TransFSScore_10nM>  (56)
0.02374

>  <TransFSScore_200nM>  (56)
0.116191

>  <TETHERED ATOMS>  (56)
15,14,13,12,4,5,6,3,2

$$$$
O[C@H]1CN(Cc2ccccc2)CC[C@H]1O
     RDKit          3D

 15 16  0  0  0  0  0  0  0  0999 V2000
    7.3280   -4.8394   25.4162 O   0  0  0  0  0  0  0  0  0  0  0  0
    8.3388   -5.4578   24.5802 C   0  0  1  0  0  0  0  0  0  0  0  0
    8.9414   -4.3920   23.6559 C   0  0  0  0  0  0  0  0  0  0  0  0
    9.9613   -3.5549   24.2615 N   0  0  0  0  0  0  0  0  0  0  0  0
    9.8129   -2.1396   24.0920 C   0  0  0  0  0  0  0  0  0  0  0  0
   11.1291   -1.5471   23.6390 C   0  0  0  0  0  0  0  0  0  0  0  0
   11.6784   -0.4290   24.2870 C   0  0  0  0  0  0  0  0  0  0  0  0
   12.9031    0.1008   23.8777 C   0  0  0  0  0  0  0  0  0  0  0  0
   13.5964   -0.4833   22.8196 C   0  0  0  0  0  0  0  0  0  0  0  0
   13.0663   -1.5966   22.1703 C   0  0  0  0  0  0  0  0  0  0  0  0
   11.8412   -2.1279   22.5783 C   0  0  0  0  0  0  0  0  0  0  0  0
   10.4394   -3.9324   25.5787 C   0  0  0  0  0  0  0  0  0  0  0  0
   10.6848   -5.4267   25.5785 C   0  0  0  0  0  0  0  0  0  0  0  0
    9.3612   -6.1483   25.4915 C   0  0  1  0  0  0  0  0  0  0  0  0
    8.8271   -6.2156   26.8200 O   0  0  0  0  0  0  0  0  0  0  0  0
  2  1  1  1
  2  3  1  0
  3  4  1  0
  4  5  1  0
  4 12  1  0
  5  6  1  0
  6  7  2  0
  7  8  1  0
  8  9  2  0
  9 10  1  0
 10 11  2  0
 11  6  1  0
 12 13  1  0
 13 14  1  0
 14 15  1  1
 14  2  1  0
M  END
>  <TransFSScore>  (57)
0.109636

>  <SuCOS_Score>  (57)
0.696313

>  <FeatureStein>  (57)
0.495429

>  <SCORE.norm>  (57)
-0.842076

>  <Max_SuCOS_Score>  (57)
0.696313

>  <Cum_SuCOS_Score>  (57)
4.773615

>  <TransFSScore_50nM>  (57)
0.005475

>  <TransFSScore_1uM>  (57)
0.314056

>  <TransFSScore_10nM>  (57)
0.018935

>  <TransFSScore_200nM>  (57)
0.10008

>  <TETHERED ATOMS>  (57)
15,14,13,12,4,5,6,3,2

$$$$
O[C@H]1CN(Cc2ccccc2)CC[C@H]1O
     RDKit          3D

 15 16  0  0  0  0  0  0  0  0999 V2000
    7.3588   -4.6967   25.4590 O   0  0  0  0  0  0  0  0  0  0  0  0
    8.3078   -5.3392   24.5703 C   0  0  1  0  0  0  0  0  0  0  0  0
    8.9055   -4.2832   23.6318 C   0  0  0  0  0  0  0  0  0  0  0  0
    9.9811   -3.4906   24.1996 N   0  0  0  0  0  0  0  0  0  0  0  0
    9.8758   -2.0688   24.0535 C   0  0  0  0  0  0  0  0  0  0  0  0
   11.2022   -1.5124   23.5847 C   0  0  0  0  0  0  0  0  0  0  0  0
   11.7912   -0.4118   24.2281 C   0  0  0  0  0  0  0  0  0  0  0  0
   13.0248    0.0844   23.8040 C   0  0  0  0  0  0  0  0  0  0  0  0
   13.6877   -0.5161   22.7356 C   0  0  0  0  0  0  0  0  0  0  0  0
   13.1181   -1.6124   22.0907 C   0  0  0  0  0  0  0  0  0  0  0  0
   11.8838   -2.1101   22.5134 C   0  0  0  0  0  0  0  0  0  0  0  0
   10.5048   -3.9021   25.4890 C   0  0  0  0  0  0  0  0  0  0  0  0
   10.6964   -5.4039   25.4601 C   0  0  0  0  0  0  0  0  0  0  0  0
    9.3452   -6.0772   25.4256 C   0  0  1  0  0  0  0  0  0  0  0  0
    8.8700   -6.1433   26.7764 O   0  0  0  0  0  0  0  0  0  0  0  0
  2  1  1  1
  2  3  1  0
  3  4  1  0
  4  5  1  0
  4 12  1  0
  5  6  1  0
  6  7  2  0
  7  8  1  0
  8  9  2  0
  9 10  1  0
 10 11  2  0
 11  6  1  0
 12 13  1  0
 13 14  1  0
 14 15  1  1
 14  2  1  0
M  END
>  <TransFSScore>  (58)
0.104237

>  <SuCOS_Score>  (58)
0.697632

>  <FeatureStein>  (58)
0.49542

>  <SCORE.norm>  (58)
-0.841907

>  <Max_SuCOS_Score>  (58)
0.697632

>  <Cum_SuCOS_Score>  (58)
4.772068

>  <TransFSScore_50nM>  (58)
0.005635

>  <TransFSScore_1uM>  (58)
0.305297

>  <TransFSScore_10nM>  (58)
0.018685

>  <TransFSScore_200nM>  (58)
0.087331

>  <TETHERED ATOMS>  (58)
15,14,13,12,4,5,6,3,2

$$$$
O[C@H]1CN(Cc2ccccc2)CC[C@H]1O
     RDKit          3D

 15 16  0  0  0  0  0  0  0  0999 V2000
    7.2714   -4.8967   25.4590 O   0  0  0  0  0  0  0  0  0  0  0  0
    8.2850   -5.5106   24.6229 C   0  0  1  0  0  0  0  0  0  0  0  0
    8.8428   -4.4550   23.6597 C   0  0  0  0  0  0  0  0  0  0  0  0
    9.8491   -3.5742   24.2245 N   0  0  0  0  0  0  0  0  0  0  0  0
    9.6591   -2.1686   24.0191 C   0  0  0  0  0  0  0  0  0  0  0  0
   10.9798   -1.5326   23.6450 C   0  0  0  0  0  0  0  0  0  0  0  0
   11.4833   -0.4375   24.3658 C   0  0  0  0  0  0  0  0  0  0  0  0
   12.7120    0.1323   24.0289 C   0  0  0  0  0  0  0  0  0  0  0  0
   13.4553   -0.3883   22.9716 C   0  0  0  0  0  0  0  0  0  0  0  0
   12.9711   -1.4782   22.2506 C   0  0  0  0  0  0  0  0  0  0  0  0
   11.7418   -2.0494   22.5860 C   0  0  0  0  0  0  0  0  0  0  0  0
   10.3590   -3.9019   25.5431 C   0  0  0  0  0  0  0  0  0  0  0  0
   10.6453   -5.3885   25.5794 C   0  0  0  0  0  0  0  0  0  0  0  0
    9.3408   -6.1476   25.5349 C   0  0  1  0  0  0  0  0  0  0  0  0
    8.8307   -6.1925   26.8738 O   0  0  0  0  0  0  0  0  0  0  0  0
  2  1  1  1
  2  3  1  0
  3  4  1  0
  4  5  1  0
  4 12  1  0
  5  6  1  0
  6  7  2  0
  7  8  1  0
  8  9  2  0
  9 10  1  0
 10 11  2  0
 11  6  1  0
 12 13  1  0
 13 14  1  0
 14 15  1  1
 14  2  1  0
M  END
>  <TransFSScore>  (59)
0.119731

>  <SuCOS_Score>  (59)
0.701244

>  <FeatureStein>  (59)
0.530258

>  <SCORE.norm>  (59)
-0.840471

>  <Max_SuCOS_Score>  (59)
0.701244

>  <Cum_SuCOS_Score>  (59)
4.899363

>  <TransFSScore_50nM>  (59)
0.004788

>  <TransFSScore_1uM>  (59)
0.330396

>  <TransFSScore_10nM>  (59)
0.02407

>  <TransFSScore_200nM>  (59)
0.119668

>  <TETHERED ATOMS>  (59)
15,14,13,12,4,5,6,3,2

$$$$
O[C@H]1CN(Cc2ccccc2)CC[C@H]1O
     RDKit          3D

 15 16  0  0  0  0  0  0  0  0999 V2000
    7.2524   -4.8598   25.4473 O   0  0  0  0  0  0  0  0  0  0  0  0
    8.2543   -5.4836   24.6045 C   0  0  1  0  0  0  0  0  0  0  0  0
    8.8344   -4.4275   23.6550 C   0  0  0  0  0  0  0  0  0  0  0  0
    9.8577   -3.5744   24.2316 N   0  0  0  0  0  0  0  0  0  0  0  0
    9.6963   -2.1628   24.0435 C   0  0  0  0  0  0  0  0  0  0  0  0
   11.0272   -1.5512   23.6646 C   0  0  0  0  0  0  0  0  0  0  0  0
   11.7731   -2.0565   22.5875 C   0  0  0  0  0  0  0  0  0  0  0  0
   12.9906   -1.4752   22.2297 C   0  0  0  0  0  0  0  0  0  0  0  0
   13.4749   -0.3788   22.9400 C   0  0  0  0  0  0  0  0  0  0  0  0
   12.7431    0.1371   24.0080 C   0  0  0  0  0  0  0  0  0  0  0  0
   11.5250   -0.4433   24.3675 C   0  0  0  0  0  0  0  0  0  0  0  0
   10.3594   -3.9287   25.5465 C   0  0  0  0  0  0  0  0  0  0  0  0
   10.6155   -5.4211   25.5645 C   0  0  0  0  0  0  0  0  0  0  0  0
    9.2960   -6.1531   25.5095 C   0  0  1  0  0  0  0  0  0  0  0  0
    8.7836   -6.2043   26.8472 O   0  0  0  0  0  0  0  0  0  0  0  0
  2  1  1  1
  2  3  1  0
  3  4  1  0
  4  5  1  0
  4 12  1  0
  5  6  1  0
  6  7  2  0
  7  8  1  0
  8  9  2  0
  9 10  1  0
 10 11  2  0
 11  6  1  0
 12 13  1  0
 13 14  1  0
 14 15  1  1
 14  2  1  0
M  END
>  <TransFSScore>  (60)
0.117717

>  <SuCOS_Score>  (60)
0.699149

>  <FeatureStein>  (60)
0.518767

>  <SCORE.norm>  (60)
-0.838298

>  <Max_SuCOS_Score>  (60)
0.699149

>  <Cum_SuCOS_Score>  (60)
4.874102

>  <TransFSScore_50nM>  (60)
0.004981

>  <TransFSScore_1uM>  (60)
0.325601

>  <TransFSScore_10nM>  (60)
0.023539

>  <TransFSScore_200nM>  (60)
0.116749

>  <TETHERED ATOMS>  (60)
15,14,13,12,4,5,6,3,2

$$$$
O[C@H]1CN(Cc2ccccc2)CC[C@H]1O
     RDKit          3D

 15 16  0  0  0  0  0  0  0  0999 V2000
    7.3337   -4.7686   25.5640 O   0  0  0  0  0  0  0  0  0  0  0  0
    8.2804   -5.3920   24.6593 C   0  0  1  0  0  0  0  0  0  0  0  0
    8.8503   -4.3219   23.7194 C   0  0  0  0  0  0  0  0  0  0  0  0
    9.9214   -3.5168   24.2778 N   0  0  0  0  0  0  0  0  0  0  0  0
    9.7934   -2.0959   24.1414 C   0  0  0  0  0  0  0  0  0  0  0  0
   11.1062   -1.5169   23.6618 C   0  0  0  0  0  0  0  0  0  0  0  0
   11.6826   -0.4078   24.3019 C   0  0  0  0  0  0  0  0  0  0  0  0
   12.9041    0.1094   23.8678 C   0  0  0  0  0  0  0  0  0  0  0  0
   13.5673   -0.4785   22.7927 C   0  0  0  0  0  0  0  0  0  0  0  0
   13.0103   -1.5831   22.1509 C   0  0  0  0  0  0  0  0  0  0  0  0
   11.7882   -2.1017   22.5837 C   0  0  0  0  0  0  0  0  0  0  0  0
   10.4679   -3.9278   25.5579 C   0  0  0  0  0  0  0  0  0  0  0  0
   10.6810   -5.4264   25.5178 C   0  0  0  0  0  0  0  0  0  0  0  0
    9.3396   -6.1194   25.4968 C   0  0  1  0  0  0  0  0  0  0  0  0
    8.8831   -6.2001   26.8532 O   0  0  0  0  0  0  0  0  0  0  0  0
  2  1  1  1
  2  3  1  0
  3  4  1  0
  4  5  1  0
  4 12  1  0
  5  6  1  0
  6  7  2  0
  7  8  1  0
  8  9  2  0
  9 10  1  0
 10 11  2  0
 11  6  1  0
 12 13  1  0
 13 14  1  0
 14 15  1  1
 14  2  1  0
M  END
>  <TransFSScore>  (61)
0.112826

>  <SuCOS_Score>  (61)
0.709517

>  <FeatureStein>  (61)
0.520544

>  <SCORE.norm>  (61)
-0.836679

>  <Max_SuCOS_Score>  (61)
0.709517

>  <Cum_SuCOS_Score>  (61)
4.833413

>  <TransFSScore_50nM>  (61)
0.00565

>  <TransFSScore_1uM>  (61)
0.314496

>  <TransFSScore_10nM>  (61)
0.021054

>  <TransFSScore_200nM>  (61)
0.110102

>  <TETHERED ATOMS>  (61)
15,14,13,12,4,5,6,3,2

$$$$
O[C@H]1CN(Cc2ccccc2)CC[C@H]1O
     RDKit          3D

 15 16  0  0  0  0  0  0  0  0999 V2000
    7.3001   -4.8238   25.5446 O   0  0  0  0  0  0  0  0  0  0  0  0
    8.3003   -5.4491   24.7009 C   0  0  1  0  0  0  0  0  0  0  0  0
    8.8900   -4.3912   23.7594 C   0  0  0  0  0  0  0  0  0  0  0  0
    9.9172   -3.5482   24.3441 N   0  0  0  0  0  0  0  0  0  0  0  0
    9.7656   -2.1345   24.1640 C   0  0  0  0  0  0  0  0  0  0  0  0
   11.0902   -1.5368   23.7434 C   0  0  0  0  0  0  0  0  0  0  0  0
   11.8065   -2.0626   22.6559 C   0  0  0  0  0  0  0  0  0  0  0  0
   13.0181   -1.4942   22.2597 C   0  0  0  0  0  0  0  0  0  0  0  0
   13.5260   -0.3904   22.9414 C   0  0  0  0  0  0  0  0  0  0  0  0
   12.8238    0.1458   24.0192 C   0  0  0  0  0  0  0  0  0  0  0  0
   11.6116   -0.4217   24.4172 C   0  0  0  0  0  0  0  0  0  0  0  0
   10.4128   -3.9137   25.6582 C   0  0  0  0  0  0  0  0  0  0  0  0
   10.6592   -5.4078   25.6679 C   0  0  0  0  0  0  0  0  0  0  0  0
    9.3351   -6.1308   25.6047 C   0  0  1  0  0  0  0  0  0  0  0  0
    8.8185   -6.1867   26.9407 O   0  0  0  0  0  0  0  0  0  0  0  0
  2  1  1  1
  2  3  1  0
  3  4  1  0
  4  5  1  0
  4 12  1  0
  5  6  1  0
  6  7  2  0
  7  8  1  0
  8  9  2  0
  9 10  1  0
 10 11  2  0
 11  6  1  0
 12 13  1  0
 13 14  1  0
 14 15  1  1
 14  2  1  0
M  END
>  <TransFSScore>  (62)
0.117551

>  <SuCOS_Score>  (62)
0.708128

>  <FeatureStein>  (62)
0.519795

>  <SCORE.norm>  (62)
-0.832329

>  <Max_SuCOS_Score>  (62)
0.708128

>  <Cum_SuCOS_Score>  (62)
4.823693

>  <TransFSScore_50nM>  (62)
0.005643

>  <TransFSScore_1uM>  (62)
0.327185

>  <TransFSScore_10nM>  (62)
0.02273

>  <TransFSScore_200nM>  (62)
0.114647

>  <TETHERED ATOMS>  (62)
15,14,13,12,4,5,6,3,2

$$$$
O[C@H]1CN(Cc2ccccc2)CC[C@H]1O
     RDKit          3D

 15 16  0  0  0  0  0  0  0  0999 V2000
    7.2977   -4.9242   25.4810 O   0  0  0  0  0  0  0  0  0  0  0  0
    8.3409   -5.5412   24.6845 C   0  0  1  0  0  0  0  0  0  0  0  0
    8.9252   -4.4922   23.7298 C   0  0  0  0  0  0  0  0  0  0  0  0
    9.9085   -3.6012   24.3187 N   0  0  0  0  0  0  0  0  0  0  0  0
    9.7191   -2.1986   24.0934 C   0  0  0  0  0  0  0  0  0  0  0  0
   11.0280   -1.5787   23.6561 C   0  0  0  0  0  0  0  0  0  0  0  0
   11.5591   -0.4654   24.3273 C   0  0  0  0  0  0  0  0  0  0  0  0
   12.7772    0.0897   23.9322 C   0  0  0  0  0  0  0  0  0  0  0  0
   13.4822   -0.4640   22.8656 C   0  0  0  0  0  0  0  0  0  0  0  0
   12.9703   -1.5723   22.1933 C   0  0  0  0  0  0  0  0  0  0  0  0
   11.7517   -2.1288   22.5870 C   0  0  0  0  0  0  0  0  0  0  0  0
   10.3764   -3.9138   25.6564 C   0  0  0  0  0  0  0  0  0  0  0  0
   10.6681   -5.3986   25.7165 C   0  0  0  0  0  0  0  0  0  0  0  0
    9.3691   -6.1644   25.6368 C   0  0  1  0  0  0  0  0  0  0  0  0
    8.8156   -6.1988   26.9586 O   0  0  0  0  0  0  0  0  0  0  0  0
  2  1  1  1
  2  3  1  0
  3  4  1  0
  4  5  1  0
  4 12  1  0
  5  6  1  0
  6  7  2  0
  7  8  1  0
  8  9  2  0
  9 10  1  0
 10 11  2  0
 11  6  1  0
 12 13  1  0
 13 14  1  0
 14 15  1  1
 14  2  1  0
M  END
>  <TransFSScore>  (63)
0.123064

>  <SuCOS_Score>  (63)
0.698025

>  <FeatureStein>  (63)
0.517138

>  <SCORE.norm>  (63)
-0.830375

>  <Max_SuCOS_Score>  (63)
0.698025

>  <Cum_SuCOS_Score>  (63)
4.818007

>  <TransFSScore_50nM>  (63)
0.005678

>  <TransFSScore_1uM>  (63)
0.340515

>  <TransFSScore_10nM>  (63)
0.02226

>  <TransFSScore_200nM>  (63)
0.123802

>  <TETHERED ATOMS>  (63)
15,14,13,12,4,5,6,3,2

$$$$
O[C@H]1CN(Cc2ccccc2)CC[C@H]1O
     RDKit          3D

 15 16  0  0  0  0  0  0  0  0999 V2000
    7.2730   -4.8579   25.4704 O   0  0  0  0  0  0  0  0  0  0  0  0
    8.2831   -5.4721   24.6304 C   0  0  1  0  0  0  0  0  0  0  0  0
    8.8477   -4.4133   23.6746 C   0  0  0  0  0  0  0  0  0  0  0  0
    9.8590   -3.5425   24.2458 N   0  0  0  0  0  0  0  0  0  0  0  0
    9.6776   -2.1345   24.0498 C   0  0  0  0  0  0  0  0  0  0  0  0
   10.9976   -1.5075   23.6582 C   0  0  0  0  0  0  0  0  0  0  0  0
   11.5085   -0.4035   24.3597 C   0  0  0  0  0  0  0  0  0  0  0  0
   12.7366    0.1580   24.0069 C   0  0  0  0  0  0  0  0  0  0  0  0
   13.4717   -0.3800   22.9526 C   0  0  0  0  0  0  0  0  0  0  0  0
   12.9800   -1.4789   22.2506 C   0  0  0  0  0  0  0  0  0  0  0  0
   11.7515   -2.0418   22.6020 C   0  0  0  0  0  0  0  0  0  0  0  0
   10.3665   -3.8823   25.5623 C   0  0  0  0  0  0  0  0  0  0  0  0
   10.6438   -5.3708   25.5885 C   0  0  0  0  0  0  0  0  0  0  0  0
    9.3348   -6.1217   25.5385 C   0  0  1  0  0  0  0  0  0  0  0  0
    8.8239   -6.1726   26.8768 O   0  0  0  0  0  0  0  0  0  0  0  0
  2  1  1  1
  2  3  1  0
  3  4  1  0
  4  5  1  0
  4 12  1  0
  5  6  1  0
  6  7  2  0
  7  8  1  0
  8  9  2  0
  9 10  1  0
 10 11  2  0
 11  6  1  0
 12 13  1  0
 13 14  1  0
 14 15  1  1
 14  2  1  0
M  END
>  <TransFSScore>  (64)
0.120208

>  <SuCOS_Score>  (64)
0.711314

>  <FeatureStein>  (64)
0.536541

>  <SCORE.norm>  (64)
-0.830275

>  <Max_SuCOS_Score>  (64)
0.711314

>  <Cum_SuCOS_Score>  (64)
4.923439

>  <TransFSScore_50nM>  (64)
0.004871

>  <TransFSScore_1uM>  (64)
0.329906

>  <TransFSScore_10nM>  (64)
0.024694

>  <TransFSScore_200nM>  (64)
0.121362

>  <TETHERED ATOMS>  (64)
15,14,13,12,4,5,6,3,2

$$$$
O=C(Cc1cccs1)N1CC[C@@H](O)[C@@H](O)C1
     RDKit          3D

 16 17  0  0  0  0  0  0  0  0999 V2000
    8.4312   -1.6484   23.4055 O   0  0  0  0  0  0  0  0  0  0  0  0
    9.4151   -2.3540   23.1988 C   0  0  0  0  0  0  0  0  0  0  0  0
   10.3763   -2.1230   22.0459 C   0  0  0  0  0  0  0  0  0  0  0  0
   11.6073   -1.3855   22.4930 C   0  0  0  0  0  0  0  0  0  0  0  0
   11.7318   -0.4646   23.5153 C   0  0  0  0  0  0  0  0  0  0  0  0
   13.0651    0.0183   23.6513 C   0  0  0  0  0  0  0  0  0  0  0  0
   13.9158   -0.5521   22.7318 C   0  0  0  0  0  0  0  0  0  0  0  0
   13.1087   -1.6611   21.7116 S   0  0  0  0  0  0  0  0  0  0  0  0
    9.6748   -3.5189   23.8871 N   0  0  0  0  0  0  0  0  0  0  0  0
   10.5837   -3.4975   25.0164 C   0  0  0  0  0  0  0  0  0  0  0  0
   10.9859   -4.9070   25.3860 C   0  0  0  0  0  0  0  0  0  0  0  0
    9.7758   -5.6650   25.8865 C   0  0  1  0  0  0  0  0  0  0  0  0
    9.5664   -5.3147   27.2633 O   0  0  0  0  0  0  0  0  0  0  0  0
    8.4839   -5.3476   25.1215 C   0  0  1  0  0  0  0  0  0  0  0  0
    7.6098   -4.5553   25.9475 O   0  0  0  0  0  0  0  0  0  0  0  0
    8.7046   -4.6044   23.8066 C   0  0  0  0  0  0  0  0  0  0  0  0
  1  2  2  0
  2  3  1  0
  2  9  1  0
  3  4  1  0
  4  5  2  0
  5  6  1  0
  6  7  2  0
  7  8  1  0
  8  4  1  0
  9 10  1  0
 10 11  1  0
 11 12  1  0
 12 13  1  1
 12 14  1  0
 14 15  1  1
 14 16  1  0
 16  9  1  0
M  END
>  <TransFSScore>  (65)
0.094874

>  <SuCOS_Score>  (65)
0.628044

>  <FeatureStein>  (65)
0.51665

>  <SCORE.norm>  (65)
-0.848578

>  <Max_SuCOS_Score>  (65)
0.628044

>  <Cum_SuCOS_Score>  (65)
4.992344

>  <TransFSScore_50nM>  (65)
0.000566

>  <TransFSScore_1uM>  (65)
0.247884

>  <TransFSScore_10nM>  (65)
0.012401

>  <TransFSScore_200nM>  (65)
0.118645

>  <TETHERED ATOMS>  (65)
13,12,11,10,9,2,3,16,14

$$$$
CC1(O)CCN(C(CN)c2cccs2)CC1
     RDKit          3D

 16 17  0  0  0  0  0  0  0  0999 V2000
    9.6417   -3.2712   27.6444 C   0  0  0  0  0  0  0  0  0  0  0  0
    9.3343   -4.5894   26.8213 C   0  0  0  0  0  0  0  0  0  0  0  0
    9.2453   -5.3726   27.9473 O   0  0  0  0  0  0  0  0  0  0  0  0
   10.4551   -4.9845   25.9024 C   0  0  0  0  0  0  0  0  0  0  0  0
   10.8021   -3.7476   25.1206 C   0  0  0  0  0  0  0  0  0  0  0  0
    9.5849   -3.0329   24.6507 N   0  0  0  0  0  0  0  0  0  0  0  0
    9.7350   -1.9939   23.6143 C   0  0  2  0  0  0  0  0  0  0  0  0
    9.6629   -2.5266   22.1636 C   0  0  0  0  0  0  0  0  0  0  0  0
    9.7398   -1.5342   21.0761 N   0  0  0  0  0  0  0  0  0  0  0  0
   10.9505   -1.1137   23.8395 C   0  0  0  0  0  0  0  0  0  0  0  0
   11.9948   -0.8164   22.9803 C   0  0  0  0  0  0  0  0  0  0  0  0
   12.9635    0.0412   23.5776 C   0  0  0  0  0  0  0  0  0  0  0  0
   12.6349    0.3702   24.8725 C   0  0  0  0  0  0  0  0  0  0  0  0
   11.1691   -0.3527   25.3641 S   0  0  0  0  0  0  0  0  0  0  0  0
    8.3062   -3.8002   24.6403 C   0  0  0  0  0  0  0  0  0  0  0  0
    8.0490   -4.4039   26.0292 C   0  0  0  0  0  0  0  0  0  0  0  0
  2  1  1  0
  2  3  1  0
  2  4  1  0
  4  5  1  0
  5  6  1  0
  6  7  1  0
  6 15  1  0
  7  8  1  6
  7 10  1  0
  8  9  1  0
 10 11  2  0
 11 12  1  0
 12 13  2  0
 13 14  1  0
 14 10  1  0
 15 16  1  0
 16  2  1  0
M  END
>  <TransFSScore>  (66)
0.096873

>  <SuCOS_Score>  (66)
0.742982

>  <FeatureStein>  (66)
0.558893

>  <SCORE.norm>  (66)
-0.942615

>  <Max_SuCOS_Score>  (66)
0.742982

>  <Cum_SuCOS_Score>  (66)
4.606755

>  <TransFSScore_50nM>  (66)
0.001875

>  <TransFSScore_1uM>  (66)
0.014694

>  <TransFSScore_10nM>  (66)
0.026313

>  <TransFSScore_200nM>  (66)
0.344608

>  <TETHERED ATOMS>  (66)
3,2,4,5,6,7,8,15,16

$$$$
CC1(O)CCN(C(CN)c2cccs2)CC1
     RDKit          3D

 16 17  0  0  0  0  0  0  0  0999 V2000
    9.6419   -3.3050   27.6472 C   0  0  0  0  0  0  0  0  0  0  0  0
    9.3748   -4.6293   26.8198 C   0  0  0  0  0  0  0  0  0  0  0  0
    9.2959   -5.4162   27.9441 O   0  0  0  0  0  0  0  0  0  0  0  0
   10.5131   -4.9948   25.9101 C   0  0  0  0  0  0  0  0  0  0  0  0
   10.8356   -3.7485   25.1329 C   0  0  0  0  0  0  0  0  0  0  0  0
    9.6048   -3.0639   24.6534 N   0  0  0  0  0  0  0  0  0  0  0  0
    9.7377   -2.0200   23.6196 C   0  0  2  0  0  0  0  0  0  0  0  0
    9.6832   -2.5513   22.1676 C   0  0  0  0  0  0  0  0  0  0  0  0
    9.7435   -1.5553   21.0823 N   0  0  0  0  0  0  0  0  0  0  0  0
   10.9333   -1.1149   23.8519 C   0  0  0  0  0  0  0  0  0  0  0  0
   12.0049   -0.8391   23.0195 C   0  0  0  0  0  0  0  0  0  0  0  0
   12.9407    0.0554   23.6153 C   0  0  0  0  0  0  0  0  0  0  0  0
   12.5606    0.4330   24.8825 C   0  0  0  0  0  0  0  0  0  0  0  0
   11.0865   -0.2887   25.3503 S   0  0  0  0  0  0  0  0  0  0  0  0
    8.3460   -3.8631   24.6310 C   0  0  0  0  0  0  0  0  0  0  0  0
    8.0921   -4.4751   26.0169 C   0  0  0  0  0  0  0  0  0  0  0  0
  2  1  1  0
  2  3  1  0
  2  4  1  0
  4  5  1  0
  5  6  1  0
  6  7  1  0
  6 15  1  0
  7  8  1  6
  7 10  1  0
  8  9  1  0
 10 11  2  0
 11 12  1  0
 12 13  2  0
 13 14  1  0
 14 10  1  0
 15 16  1  0
 16  2  1  0
M  END
>  <TransFSScore>  (67)
0.098117

>  <SuCOS_Score>  (67)
0.731717

>  <FeatureStein>  (67)
0.541133

>  <SCORE.norm>  (67)
-0.942319

>  <Max_SuCOS_Score>  (67)
0.731717

>  <Cum_SuCOS_Score>  (67)
4.582896

>  <TransFSScore_50nM>  (67)
0.001781

>  <TransFSScore_1uM>  (67)
0.015241

>  <TransFSScore_10nM>  (67)
0.026093

>  <TransFSScore_200nM>  (67)
0.349354

>  <TETHERED ATOMS>  (67)
3,2,4,5,6,7,8,15,16

$$$$
CC1(O)CCN(C(CN)c2cccs2)CC1
     RDKit          3D

 16 17  0  0  0  0  0  0  0  0999 V2000
    9.6282   -3.2122   27.5958 C   0  0  0  0  0  0  0  0  0  0  0  0
    9.3504   -4.5473   26.7897 C   0  0  0  0  0  0  0  0  0  0  0  0
    9.2631   -5.3151   27.9264 O   0  0  0  0  0  0  0  0  0  0  0  0
   10.4864   -4.9376   25.8875 C   0  0  0  0  0  0  0  0  0  0  0  0
   10.8209   -3.7070   25.0907 C   0  0  0  0  0  0  0  0  0  0  0  0
    9.5969   -3.0193   24.5985 N   0  0  0  0  0  0  0  0  0  0  0  0
    9.7403   -1.9935   23.5481 C   0  0  2  0  0  0  0  0  0  0  0  0
    9.6121   -2.5373   22.1054 C   0  0  0  0  0  0  0  0  0  0  0  0
    9.5954   -1.5494   21.0112 N   0  0  0  0  0  0  0  0  0  0  0  0
   10.9823   -1.1405   23.7285 C   0  0  0  0  0  0  0  0  0  0  0  0
   11.2403   -0.1440   24.6545 C   0  0  0  0  0  0  0  0  0  0  0  0
   12.5290    0.4392   24.4814 C   0  0  0  0  0  0  0  0  0  0  0  0
   13.2146   -0.1237   23.4297 C   0  0  0  0  0  0  0  0  0  0  0  0
   12.3084   -1.3453   22.6557 S   0  0  0  0  0  0  0  0  0  0  0  0
    8.3310   -3.8076   24.5874 C   0  0  0  0  0  0  0  0  0  0  0  0
    8.0701   -4.3947   25.9827 C   0  0  0  0  0  0  0  0  0  0  0  0
  2  1  1  0
  2  3  1  0
  2  4  1  0
  4  5  1  0
  5  6  1  0
  6  7  1  0
  6 15  1  0
  7  8  1  6
  7 10  1  0
  8  9  1  0
 10 11  2  0
 11 12  1  0
 12 13  2  0
 13 14  1  0
 14 10  1  0
 15 16  1  0
 16  2  1  0
M  END
>  <TransFSScore>  (68)
0.202046

>  <SuCOS_Score>  (68)
0.8165

>  <FeatureStein>  (68)
0.637313

>  <SCORE.norm>  (68)
-0.89109

>  <Max_SuCOS_Score>  (68)
0.8165

>  <Cum_SuCOS_Score>  (68)
5.112257

>  <TransFSScore_50nM>  (68)
0.001675

>  <TransFSScore_1uM>  (68)
0.021928

>  <TransFSScore_10nM>  (68)
0.201923

>  <TransFSScore_200nM>  (68)
0.582657

>  <TETHERED ATOMS>  (68)
3,2,4,5,6,7,8,15,16

$$$$
CN(C)CC1(O)CCN(CC2C3CNCC32)CC1
     RDKit          3D

 18 20  0  0  0  0  0  0  0  0999 V2000
    9.7437   -4.3311   28.5109 C   0  0  0  0  0  0  0  0  0  0  0  0
    8.6803   -5.1997   27.9110 N   0  0  0  0  0  0  0  0  0  0  0  0
    7.4546   -5.2814   28.7735 C   0  0  0  0  0  0  0  0  0  0  0  0
    8.4444   -5.0135   26.4012 C   0  0  0  0  0  0  0  0  0  0  0  0
    9.4290   -5.7758   25.3651 C   0  0  0  0  0  0  0  0  0  0  0  0
    9.4784   -7.0019   26.0016 O   0  0  0  0  0  0  0  0  0  0  0  0
   10.8200   -5.1734   25.3378 C   0  0  0  0  0  0  0  0  0  0  0  0
   10.5999   -3.6941   25.3141 C   0  0  0  0  0  0  0  0  0  0  0  0
    9.7754   -3.2966   24.1950 N   0  0  0  0  0  0  0  0  0  0  0  0
    9.3136   -1.9346   24.2753 C   0  0  0  0  0  0  0  0  0  0  0  0
   10.0983   -1.1011   23.3057 C   0  0  0  0  0  0  0  0  0  0  0  0
   11.0145   -0.0506   23.8048 C   0  0  1  0  0  0  0  0  0  0  0  0
   12.0822    0.1745   24.8028 C   0  0  0  0  0  0  0  0  0  0  0  0
   13.2881   -0.0418   23.9667 N   0  0  0  0  0  0  0  0  0  0  0  0
   12.8595   -0.7049   22.7070 C   0  0  0  0  0  0  0  0  0  0  0  0
   11.5803   -1.3222   23.1371 C   0  0  2  0  0  0  0  0  0  0  0  0
    8.8644   -4.2072   23.5168 C   0  0  0  0  0  0  0  0  0  0  0  0
    8.8573   -5.6708   23.9837 C   0  0  0  0  0  0  0  0  0  0  0  0
  1  2  1  0
  2  3  1  0
  2  4  1  0
  4  5  1  0
  5  6  1  0
  5  7  1  0
  7  8  1  0
  8  9  1  0
  9 10  1  0
  9 17  1  0
 11 10  1  0
 11 12  1  0
 12 13  1  1
 13 14  1  0
 14 15  1  0
 16 15  1  6
 16 11  1  0
 16 12  1  0
 17 18  1  0
 18  5  1  0
M  END
>  <TransFSScore>  (69)
0.113295

>  <SuCOS_Score>  (69)
0.663433

>  <FeatureStein>  (69)
0.557831

>  <SCORE.norm>  (69)
-0.859547

>  <Max_SuCOS_Score>  (69)
0.663433

>  <Cum_SuCOS_Score>  (69)
4.807513

>  <TransFSScore_50nM>  (69)
0.012791

>  <TransFSScore_1uM>  (69)
0.035761

>  <TransFSScore_10nM>  (69)
0.016262

>  <TransFSScore_200nM>  (69)
0.388368

>  <TETHERED ATOMS>  (69)
6,5,7,8,9,10,11,17,18

$$$$
N#Cc1cncc(CN2CCC(O)CC2)c1
     RDKit          3D

 16 17  0  0  0  0  0  0  0  0999 V2000
   14.0124   -1.5937   20.5696 N   0  0  0  0  0  0  0  0  0  0  0  0
   13.4668   -1.2624   21.5371 C   0  0  0  0  0  0  0  0  0  0  0  0
   12.7650   -0.9004   22.7267 C   0  0  0  0  0  0  0  0  0  0  0  0
   13.2980    0.0179   23.6140 C   0  0  0  0  0  0  0  0  0  0  0  0
   12.6788    0.3893   24.7600 N   0  0  0  0  0  0  0  0  0  0  0  0
   11.4786   -0.1643   25.0314 C   0  0  0  0  0  0  0  0  0  0  0  0
   10.8590   -1.1079   24.2172 C   0  0  0  0  0  0  0  0  0  0  0  0
    9.5398   -1.7010   24.5806 C   0  0  0  0  0  0  0  0  0  0  0  0
    9.5222   -3.1509   24.8220 N   0  0  0  0  0  0  0  0  0  0  0  0
   10.4164   -3.7060   25.8754 C   0  0  0  0  0  0  0  0  0  0  0  0
   10.8350   -5.1230   25.5531 C   0  0  0  0  0  0  0  0  0  0  0  0
    9.6490   -6.0031   25.2410 C   0  0  0  0  0  0  0  0  0  0  0  0
    8.9758   -6.2738   26.4631 O   0  0  0  0  0  0  0  0  0  0  0  0
    8.6580   -5.3563   24.2802 C   0  0  0  0  0  0  0  0  0  0  0  0
    9.1547   -4.0398   23.6911 C   0  0  0  0  0  0  0  0  0  0  0  0
   11.5259   -1.4710   23.0364 C   0  0  0  0  0  0  0  0  0  0  0  0
  1  2  3  0
  2  3  1  0
  3  4  2  0
  4  5  1  0
  5  6  2  0
  6  7  1  0
  7  8  1  0
  7 16  2  0
  8  9  1  0
  9 10  1  0
 10 11  1  0
 11 12  1  0
 12 13  1  0
 12 14  1  0
 14 15  1  0
 15  9  1  0
 16  3  1  0
M  END
>  <TransFSScore>  (70)
0.126127

>  <SuCOS_Score>  (70)
0.599143

>  <FeatureStein>  (70)
0.54085

>  <SCORE.norm>  (70)
-1.02303

>  <Max_SuCOS_Score>  (70)
0.609975

>  <Cum_SuCOS_Score>  (70)
4.740116

>  <TransFSScore_50nM>  (70)
0.007418

>  <TransFSScore_1uM>  (70)
0.038316

>  <TransFSScore_10nM>  (70)
0.037105

>  <TransFSScore_200nM>  (70)
0.421668

>  <TETHERED ATOMS>  (70)
13,12,11,10,9,8,7,15,14

$$$$
N#Cc1cncc(CN2CCC(O)CC2)c1
     RDKit          3D

 16 17  0  0  0  0  0  0  0  0999 V2000
   14.0127   -1.5600   20.5403 N   0  0  0  0  0  0  0  0  0  0  0  0
   13.4730   -1.2344   21.5130 C   0  0  0  0  0  0  0  0  0  0  0  0
   12.7782   -0.8791   22.7087 C   0  0  0  0  0  0  0  0  0  0  0  0
   13.3221    0.0246   23.6043 C   0  0  0  0  0  0  0  0  0  0  0  0
   12.7098    0.3890   24.7562 N   0  0  0  0  0  0  0  0  0  0  0  0
   11.5055   -0.1567   25.0253 C   0  0  0  0  0  0  0  0  0  0  0  0
   10.8748   -1.0857   24.2028 C   0  0  0  0  0  0  0  0  0  0  0  0
    9.5514   -1.6708   24.5638 C   0  0  0  0  0  0  0  0  0  0  0  0
    9.5238   -3.1212   24.8011 N   0  0  0  0  0  0  0  0  0  0  0  0
   10.4066   -3.6842   25.8599 C   0  0  0  0  0  0  0  0  0  0  0  0
   10.8197   -5.1027   25.5371 C   0  0  0  0  0  0  0  0  0  0  0  0
    9.6313   -5.9752   25.2132 C   0  0  0  0  0  0  0  0  0  0  0  0
    8.9469   -6.2454   26.4292 O   0  0  0  0  0  0  0  0  0  0  0  0
    8.6515   -5.3202   24.2464 C   0  0  0  0  0  0  0  0  0  0  0  0
    9.1603   -4.0050   23.6648 C   0  0  0  0  0  0  0  0  0  0  0  0
   11.5349   -1.4418   23.0160 C   0  0  0  0  0  0  0  0  0  0  0  0
  1  2  3  0
  2  3  1  0
  3  4  2  0
  4  5  1  0
  5  6  2  0
  6  7  1  0
  7  8  1  0
  7 16  2  0
  8  9  1  0
  9 10  1  0
 10 11  1  0
 11 12  1  0
 12 13  1  0
 12 14  1  0
 14 15  1  0
 15  9  1  0
 16  3  1  0
M  END
>  <TransFSScore>  (71)
0.122419

>  <SuCOS_Score>  (71)
0.603636

>  <FeatureStein>  (71)
0.545435

>  <SCORE.norm>  (71)
-1.02119

>  <Max_SuCOS_Score>  (71)
0.604089

>  <Cum_SuCOS_Score>  (71)
4.748736

>  <TransFSScore_50nM>  (71)
0.007114

>  <TransFSScore_1uM>  (71)
0.037959

>  <TransFSScore_10nM>  (71)
0.035565

>  <TransFSScore_200nM>  (71)
0.409036

>  <TETHERED ATOMS>  (71)
13,12,11,10,9,8,7,15,14

$$$$
N#Cc1cncc(CN2CCC(O)CC2)c1
     RDKit          3D

 16 17  0  0  0  0  0  0  0  0999 V2000
   14.0713   -1.6265   20.6153 N   0  0  0  0  0  0  0  0  0  0  0  0
   13.5012   -1.2804   21.5634 C   0  0  0  0  0  0  0  0  0  0  0  0
   12.7695   -0.9004   22.7292 C   0  0  0  0  0  0  0  0  0  0  0  0
   13.2776    0.0354   23.6127 C   0  0  0  0  0  0  0  0  0  0  0  0
   12.6296    0.4243   24.7368 N   0  0  0  0  0  0  0  0  0  0  0  0
   11.4251   -0.1292   24.9888 C   0  0  0  0  0  0  0  0  0  0  0  0
   10.8287   -1.0894   24.1767 C   0  0  0  0  0  0  0  0  0  0  0  0
    9.5033   -1.6813   24.5185 C   0  0  0  0  0  0  0  0  0  0  0  0
    9.4825   -3.1292   24.7713 N   0  0  0  0  0  0  0  0  0  0  0  0
   10.3812   -3.6789   25.8237 C   0  0  0  0  0  0  0  0  0  0  0  0
   10.7934   -5.0997   25.5100 C   0  0  0  0  0  0  0  0  0  0  0  0
    9.6029   -5.9784   25.2116 C   0  0  0  0  0  0  0  0  0  0  0  0
    8.9360   -6.2375   26.4398 O   0  0  0  0  0  0  0  0  0  0  0  0
    8.6083   -5.3360   24.2517 C   0  0  0  0  0  0  0  0  0  0  0  0
    9.1057   -4.0257   23.6495 C   0  0  0  0  0  0  0  0  0  0  0  0
   11.5254   -1.4704   23.0189 C   0  0  0  0  0  0  0  0  0  0  0  0
  1  2  3  0
  2  3  1  0
  3  4  2  0
  4  5  1  0
  5  6  2  0
  6  7  1  0
  7  8  1  0
  7 16  2  0
  8  9  1  0
  9 10  1  0
 10 11  1  0
 11 12  1  0
 12 13  1  0
 12 14  1  0
 14 15  1  0
 15  9  1  0
 16  3  1  0
M  END
>  <TransFSScore>  (72)
0.121387

>  <SuCOS_Score>  (72)
0.605964

>  <FeatureStein>  (72)
0.564786

>  <SCORE.norm>  (72)
-1.01748

>  <Max_SuCOS_Score>  (72)
0.619813

>  <Cum_SuCOS_Score>  (72)
4.813081

>  <TransFSScore_50nM>  (72)
0.007269

>  <TransFSScore_1uM>  (72)
0.037917

>  <TransFSScore_10nM>  (72)
0.034645

>  <TransFSScore_200nM>  (72)
0.405717

>  <TETHERED ATOMS>  (72)
13,12,11,10,9,8,7,15,14

$$$$
N#Cc1cncc(CN2CCC(O)CC2)c1
     RDKit          3D

 16 17  0  0  0  0  0  0  0  0999 V2000
   13.7702   -1.7030   20.5740 N   0  0  0  0  0  0  0  0  0  0  0  0
   13.2575   -1.3571   21.5544 C   0  0  0  0  0  0  0  0  0  0  0  0
   12.5972   -0.9778   22.7622 C   0  0  0  0  0  0  0  0  0  0  0  0
   13.1467   -0.0263   23.6032 C   0  0  0  0  0  0  0  0  0  0  0  0
   12.5670    0.3629   24.7639 N   0  0  0  0  0  0  0  0  0  0  0  0
   11.3904   -0.2066   25.0983 C   0  0  0  0  0  0  0  0  0  0  0  0
   10.7578   -1.1832   24.3345 C   0  0  0  0  0  0  0  0  0  0  0  0
    9.4669   -1.7922   24.7666 C   0  0  0  0  0  0  0  0  0  0  0  0
    9.4639   -3.2508   24.9487 N   0  0  0  0  0  0  0  0  0  0  0  0
   10.4115   -3.8454   25.9316 C   0  0  0  0  0  0  0  0  0  0  0  0
   10.8153   -5.2465   25.5304 C   0  0  0  0  0  0  0  0  0  0  0  0
    9.6164   -6.1173   25.2430 C   0  0  0  0  0  0  0  0  0  0  0  0
    9.0066   -6.4404   26.4856 O   0  0  0  0  0  0  0  0  0  0  0  0
    8.5767   -5.4353   24.3612 C   0  0  0  0  0  0  0  0  0  0  0  0
    9.0408   -4.0939   23.8023 C   0  0  0  0  0  0  0  0  0  0  0  0
   11.3837   -1.5641   23.1368 C   0  0  0  0  0  0  0  0  0  0  0  0
  1  2  3  0
  2  3  1  0
  3  4  2  0
  4  5  1  0
  5  6  2  0
  6  7  1  0
  7  8  1  0
  7 16  2  0
  8  9  1  0
  9 10  1  0
 10 11  1  0
 11 12  1  0
 12 13  1  0
 12 14  1  0
 14 15  1  0
 15  9  1  0
 16  3  1  0
M  END
>  <TransFSScore>  (73)
0.130647

>  <SuCOS_Score>  (73)
0.564479

>  <FeatureStein>  (73)
0.520217

>  <SCORE.norm>  (73)
-1.01624

>  <Max_SuCOS_Score>  (73)
0.633661

>  <Cum_SuCOS_Score>  (73)
4.688914

>  <TransFSScore_50nM>  (73)
0.009881

>  <TransFSScore_1uM>  (73)
0.037631

>  <TransFSScore_10nM>  (73)
0.042695

>  <TransFSScore_200nM>  (73)
0.432382

>  <TETHERED ATOMS>  (73)
13,12,11,10,9,8,7,15,14

$$$$
N#Cc1cncc(CN2CCC(O)CC2)c1
     RDKit          3D

 16 17  0  0  0  0  0  0  0  0999 V2000
   14.0688   -1.5499   20.5178 N   0  0  0  0  0  0  0  0  0  0  0  0
   13.5396   -1.2232   21.4959 C   0  0  0  0  0  0  0  0  0  0  0  0
   12.8573   -0.8662   22.6983 C   0  0  0  0  0  0  0  0  0  0  0  0
   13.4152    0.0311   23.5917 C   0  0  0  0  0  0  0  0  0  0  0  0
   12.8151    0.3967   24.7498 N   0  0  0  0  0  0  0  0  0  0  0  0
   11.6092   -0.1411   25.0274 C   0  0  0  0  0  0  0  0  0  0  0  0
   10.9651   -1.0633   24.2078 C   0  0  0  0  0  0  0  0  0  0  0  0
    9.6406   -1.6399   24.5782 C   0  0  0  0  0  0  0  0  0  0  0  0
    9.5995   -3.0942   24.7885 N   0  0  0  0  0  0  0  0  0  0  0  0
   10.5082   -3.6902   25.8065 C   0  0  0  0  0  0  0  0  0  0  0  0
   10.8897   -5.1077   25.4431 C   0  0  0  0  0  0  0  0  0  0  0  0
    9.6787   -5.9569   25.1420 C   0  0  0  0  0  0  0  0  0  0  0  0
    9.0307   -6.2413   26.3747 O   0  0  0  0  0  0  0  0  0  0  0  0
    8.6774   -5.2695   24.2210 C   0  0  0  0  0  0  0  0  0  0  0  0
    9.1860   -3.9503   23.6482 C   0  0  0  0  0  0  0  0  0  0  0  0
   11.6127   -1.4209   23.0145 C   0  0  0  0  0  0  0  0  0  0  0  0
  1  2  3  0
  2  3  1  0
  3  4  2  0
  4  5  1  0
  5  6  2  0
  6  7  1  0
  7  8  1  0
  7 16  2  0
  8  9  1  0
  9 10  1  0
 10 11  1  0
 11 12  1  0
 12 13  1  0
 12 14  1  0
 14 15  1  0
 15  9  1  0
 16  3  1  0
M  END
>  <TransFSScore>  (74)
0.113921

>  <SuCOS_Score>  (74)
0.605256

>  <FeatureStein>  (74)
0.527838

>  <SCORE.norm>  (74)
-1.01182

>  <Max_SuCOS_Score>  (74)
0.605256

>  <Cum_SuCOS_Score>  (74)
4.680461

>  <TransFSScore_50nM>  (74)
0.006313

>  <TransFSScore_1uM>  (74)
0.035573

>  <TransFSScore_10nM>  (74)
0.032094

>  <TransFSScore_200nM>  (74)
0.381702

>  <TETHERED ATOMS>  (74)
13,12,11,10,9,8,7,15,14

$$$$
N#Cc1cncc(CN2CCC(O)CC2)c1
     RDKit          3D

 16 17  0  0  0  0  0  0  0  0999 V2000
   14.1607   -1.5839   20.0188 N   0  0  0  0  0  0  0  0  0  0  0  0
   13.5621   -1.3700   20.9880 C   0  0  0  0  0  0  0  0  0  0  0  0
   12.7972   -1.1532   22.1741 C   0  0  0  0  0  0  0  0  0  0  0  0
   13.2527   -0.3047   23.1676 C   0  0  0  0  0  0  0  0  0  0  0  0
   12.5717   -0.0711   24.3149 N   0  0  0  0  0  0  0  0  0  0  0  0
   11.3870   -0.6958   24.4785 C   0  0  0  0  0  0  0  0  0  0  0  0
   10.8431   -1.5802   23.5514 C   0  0  0  0  0  0  0  0  0  0  0  0
    9.5377   -2.2578   23.7973 C   0  0  0  0  0  0  0  0  0  0  0  0
    9.5951   -3.5425   24.5095 N   0  0  0  0  0  0  0  0  0  0  0  0
    8.4188   -4.4521   24.4287 C   0  0  0  0  0  0  0  0  0  0  0  0
    8.2909   -5.3004   25.6741 C   0  0  0  0  0  0  0  0  0  0  0  0
    9.5814   -6.0086   26.0078 C   0  0  0  0  0  0  0  0  0  0  0  0
    9.7518   -7.0644   25.0715 O   0  0  0  0  0  0  0  0  0  0  0  0
   10.8022   -5.0989   25.9324 C   0  0  0  0  0  0  0  0  0  0  0  0
   10.4520   -3.6296   25.7188 C   0  0  0  0  0  0  0  0  0  0  0  0
   11.5729   -1.8002   22.3724 C   0  0  0  0  0  0  0  0  0  0  0  0
  1  2  3  0
  2  3  1  0
  3  4  2  0
  4  5  1  0
  5  6  2  0
  6  7  1  0
  7  8  1  0
  7 16  2  0
  8  9  1  0
  9 10  1  0
 10 11  1  0
 11 12  1  0
 12 13  1  0
 12 14  1  0
 14 15  1  0
 15  9  1  0
 16  3  1  0
M  END
>  <TransFSScore>  (75)
0.225428

>  <SuCOS_Score>  (75)
0.626305

>  <FeatureStein>  (75)
0.528229

>  <SCORE.norm>  (75)
-0.976507

>  <Max_SuCOS_Score>  (75)
0.626305

>  <Cum_SuCOS_Score>  (75)
4.802391

>  <TransFSScore_50nM>  (75)
0.063015

>  <TransFSScore_1uM>  (75)
0.053895

>  <TransFSScore_10nM>  (75)
0.079891

>  <TransFSScore_200nM>  (75)
0.704909

>  <TETHERED ATOMS>  (75)
13,12,11,10,9,8,7,15,14

$$$$
N#Cc1cncc(CN2CCC(O)CC2)c1
     RDKit          3D

 16 17  0  0  0  0  0  0  0  0999 V2000
   14.3650   -1.5754   20.1503 N   0  0  0  0  0  0  0  0  0  0  0  0
   13.7386   -1.3441   21.0978 C   0  0  0  0  0  0  0  0  0  0  0  0
   12.9395   -1.1059   22.2569 C   0  0  0  0  0  0  0  0  0  0  0  0
   13.3703   -0.2463   23.2519 C   0  0  0  0  0  0  0  0  0  0  0  0
   12.6563    0.0076   24.3746 N   0  0  0  0  0  0  0  0  0  0  0  0
   11.4630   -0.6073   24.5107 C   0  0  0  0  0  0  0  0  0  0  0  0
   10.9417   -1.5012   23.5798 C   0  0  0  0  0  0  0  0  0  0  0  0
    9.6248   -2.1671   23.7952 C   0  0  0  0  0  0  0  0  0  0  0  0
    9.6590   -3.4767   24.4621 N   0  0  0  0  0  0  0  0  0  0  0  0
    8.4489   -4.3415   24.3904 C   0  0  0  0  0  0  0  0  0  0  0  0
    8.3307   -5.2271   25.6106 C   0  0  0  0  0  0  0  0  0  0  0  0
    9.6051   -5.9908   25.8773 C   0  0  0  0  0  0  0  0  0  0  0  0
    9.7073   -7.0191   24.9014 O   0  0  0  0  0  0  0  0  0  0  0  0
   10.8547   -5.1221   25.7915 C   0  0  0  0  0  0  0  0  0  0  0  0
   10.5507   -3.6351   25.6385 C   0  0  0  0  0  0  0  0  0  0  0  0
   11.7055   -1.7423   22.4267 C   0  0  0  0  0  0  0  0  0  0  0  0
  1  2  3  0
  2  3  1  0
  3  4  2  0
  4  5  1  0
  5  6  2  0
  6  7  1  0
  7  8  1  0
  7 16  2  0
  8  9  1  0
  9 10  1  0
 10 11  1  0
 11 12  1  0
 12 13  1  0
 12 14  1  0
 14 15  1  0
 15  9  1  0
 16  3  1  0
M  END
>  <TransFSScore>  (76)
0.216195

>  <SuCOS_Score>  (76)
0.642039

>  <FeatureStein>  (76)
0.53481

>  <SCORE.norm>  (76)
-0.9751

>  <Max_SuCOS_Score>  (76)
0.642039

>  <Cum_SuCOS_Score>  (76)
4.820453

>  <TransFSScore_50nM>  (76)
0.053054

>  <TransFSScore_1uM>  (76)
0.048156

>  <TransFSScore_10nM>  (76)
0.076362

>  <TransFSScore_200nM>  (76)
0.687206

>  <TETHERED ATOMS>  (76)
13,12,11,10,9,8,7,15,14

$$$$
N#Cc1cncc(CN2CCC(O)CC2)c1
     RDKit          3D

 16 17  0  0  0  0  0  0  0  0999 V2000
   14.2719   -1.6209   19.9969 N   0  0  0  0  0  0  0  0  0  0  0  0
   13.6657   -1.3889   20.9573 C   0  0  0  0  0  0  0  0  0  0  0  0
   12.8915   -1.1498   22.1329 C   0  0  0  0  0  0  0  0  0  0  0  0
   13.3424   -0.2882   23.1171 C   0  0  0  0  0  0  0  0  0  0  0  0
   12.6524   -0.0333   24.2545 N   0  0  0  0  0  0  0  0  0  0  0  0
   11.4631   -0.6495   24.4171 C   0  0  0  0  0  0  0  0  0  0  0  0
   10.9229   -1.5454   23.4990 C   0  0  0  0  0  0  0  0  0  0  0  0
    9.6119   -2.2126   23.7436 C   0  0  0  0  0  0  0  0  0  0  0  0
    9.6593   -3.5037   24.4448 N   0  0  0  0  0  0  0  0  0  0  0  0
    8.4599   -4.3846   24.3919 C   0  0  0  0  0  0  0  0  0  0  0  0
    8.3478   -5.2392   25.6345 C   0  0  0  0  0  0  0  0  0  0  0  0
    9.6303   -5.9802   25.9255 C   0  0  0  0  0  0  0  0  0  0  0  0
    9.7484   -7.0325   24.9774 O   0  0  0  0  0  0  0  0  0  0  0  0
   10.8697   -5.0989   25.8211 C   0  0  0  0  0  0  0  0  0  0  0  0
   10.5484   -3.6203   25.6280 C   0  0  0  0  0  0  0  0  0  0  0  0
   11.6621   -1.7874   22.3301 C   0  0  0  0  0  0  0  0  0  0  0  0
  1  2  3  0
  2  3  1  0
  3  4  2  0
  4  5  1  0
  5  6  2  0
  6  7  1  0
  7  8  1  0
  7 16  2  0
  8  9  1  0
  9 10  1  0
 10 11  1  0
 11 12  1  0
 12 13  1  0
 12 14  1  0
 14 15  1  0
 15  9  1  0
 16  3  1  0
M  END
>  <TransFSScore>  (77)
0.216521

>  <SuCOS_Score>  (77)
0.633591

>  <FeatureStein>  (77)
0.529769

>  <SCORE.norm>  (77)
-0.973747

>  <Max_SuCOS_Score>  (77)
0.633591

>  <Cum_SuCOS_Score>  (77)
4.79453

>  <TransFSScore_50nM>  (77)
0.056283

>  <TransFSScore_1uM>  (77)
0.048977

>  <TransFSScore_10nM>  (77)
0.07758

>  <TransFSScore_200nM>  (77)
0.683242

>  <TETHERED ATOMS>  (77)
13,12,11,10,9,8,7,15,14

$$$$
N#Cc1cncc(CN2CCC(O)CC2)c1
     RDKit          3D

 16 17  0  0  0  0  0  0  0  0999 V2000
   14.2231   -1.4400   20.4385 N   0  0  0  0  0  0  0  0  0  0  0  0
   13.5735   -1.2476   21.3754 C   0  0  0  0  0  0  0  0  0  0  0  0
   12.7734   -1.0282   22.5397 C   0  0  0  0  0  0  0  0  0  0  0  0
   13.1480   -0.0614   23.4656 C   0  0  0  0  0  0  0  0  0  0  0  0
   12.3849    0.1477   24.5547 N   0  0  0  0  0  0  0  0  0  0  0  0
   11.2585   -0.5512   24.8014 C   0  0  0  0  0  0  0  0  0  0  0  0
   10.8331   -1.5553   23.9143 C   0  0  0  0  0  0  0  0  0  0  0  0
    9.5262   -2.2852   24.1530 C   0  0  0  0  0  0  0  0  0  0  0  0
    9.7705   -3.7098   24.4147 N   0  0  0  0  0  0  0  0  0  0  0  0
   10.2006   -3.9694   25.8226 C   0  0  0  0  0  0  0  0  0  0  0  0
   10.5413   -5.4339   25.9039 C   0  0  0  0  0  0  0  0  0  0  0  0
    9.2600   -6.2270   25.8456 C   0  0  0  0  0  0  0  0  0  0  0  0
    8.7016   -6.1554   27.1535 O   0  0  0  0  0  0  0  0  0  0  0  0
    8.2256   -5.6579   24.8896 C   0  0  0  0  0  0  0  0  0  0  0  0
    8.7204   -4.6400   23.8790 C   0  0  0  0  0  0  0  0  0  0  0  0
   11.6061   -1.7712   22.7609 C   0  0  0  0  0  0  0  0  0  0  0  0
  1  2  3  0
  2  3  1  0
  3  4  2  0
  4  5  1  0
  5  6  2  0
  6  7  1  0
  7  8  1  0
  7 16  2  0
  8  9  1  0
  9 10  1  0
 10 11  1  0
 11 12  1  0
 12 13  1  0
 12 14  1  0
 14 15  1  0
 15  9  1  0
 16  3  1  0
M  END
>  <TransFSScore>  (78)
0.170507

>  <SuCOS_Score>  (78)
0.596763

>  <FeatureStein>  (78)
0.512225

>  <SCORE.norm>  (78)
-0.95529

>  <Max_SuCOS_Score>  (78)
0.651099

>  <Cum_SuCOS_Score>  (78)
4.795944

>  <TransFSScore_50nM>  (78)
0.029772

>  <TransFSScore_1uM>  (78)
0.038555

>  <TransFSScore_10nM>  (78)
0.117945

>  <TransFSScore_200nM>  (78)
0.495756

>  <TETHERED ATOMS>  (78)
13,12,11,10,9,8,7,15,14

$$$$
N#Cc1cccc(CN2CCC(O)CC2)c1
     RDKit          3D

 16 17  0  0  0  0  0  0  0  0999 V2000
   14.3070   -1.4913   20.5670 N   0  0  0  0  0  0  0  0  0  0  0  0
   13.6695   -1.2173   21.4957 C   0  0  0  0  0  0  0  0  0  0  0  0
   12.8535   -0.9315   22.6396 C   0  0  0  0  0  0  0  0  0  0  0  0
   13.2500    0.0334   23.5667 C   0  0  0  0  0  0  0  0  0  0  0  0
   12.4472    0.3071   24.6740 C   0  0  0  0  0  0  0  0  0  0  0  0
   11.2498   -0.3867   24.8639 C   0  0  0  0  0  0  0  0  0  0  0  0
   10.8403   -1.3717   23.9511 C   0  0  0  0  0  0  0  0  0  0  0  0
    9.5480   -2.1198   24.1605 C   0  0  0  0  0  0  0  0  0  0  0  0
    9.8371   -3.5568   24.2921 N   0  0  0  0  0  0  0  0  0  0  0  0
   10.3015   -3.9133   25.6660 C   0  0  0  0  0  0  0  0  0  0  0  0
   10.6763   -5.3727   25.6265 C   0  0  0  0  0  0  0  0  0  0  0  0
    9.4165   -6.1931   25.5074 C   0  0  0  0  0  0  0  0  0  0  0  0
    8.8656   -6.2632   26.8193 O   0  0  0  0  0  0  0  0  0  0  0  0
    8.3596   -5.5731   24.6094 C   0  0  0  0  0  0  0  0  0  0  0  0
    8.8310   -4.4703   23.6791 C   0  0  0  0  0  0  0  0  0  0  0  0
   11.6513   -1.6290   22.8303 C   0  0  0  0  0  0  0  0  0  0  0  0
  1  2  3  0
  2  3  1  0
  3  4  2  0
  4  5  1  0
  5  6  2  0
  6  7  1  0
  7  8  1  0
  7 16  2  0
  8  9  1  0
  9 10  1  0
 10 11  1  0
 11 12  1  0
 12 13  1  0
 12 14  1  0
 14 15  1  0
 15  9  1  0
 16  3  1  0
M  END
>  <TransFSScore>  (79)
0.112025

>  <SuCOS_Score>  (79)
0.641495

>  <FeatureStein>  (79)
0.515278

>  <SCORE.norm>  (79)
-0.922389

>  <Max_SuCOS_Score>  (79)
0.641495

>  <Cum_SuCOS_Score>  (79)
5.024731

>  <TransFSScore_50nM>  (79)
0.007607

>  <TransFSScore_1uM>  (79)
0.100944

>  <TransFSScore_10nM>  (79)
0.106552

>  <TransFSScore_200nM>  (79)
0.232997

>  <TETHERED ATOMS>  (79)
13,12,11,10,9,8,7,15,14

$$$$
N#Cc1cccc(CN2CCC(O)CC2)c1
     RDKit          3D

 16 17  0  0  0  0  0  0  0  0999 V2000
   14.2859   -1.4622   20.5427 N   0  0  0  0  0  0  0  0  0  0  0  0
   13.6564   -1.1989   21.4799 C   0  0  0  0  0  0  0  0  0  0  0  0
   12.8499   -0.9260   22.6337 C   0  0  0  0  0  0  0  0  0  0  0  0
   13.2590    0.0214   23.5734 C   0  0  0  0  0  0  0  0  0  0  0  0
   12.4653    0.2826   24.6902 C   0  0  0  0  0  0  0  0  0  0  0  0
   11.2646   -0.4062   24.8770 C   0  0  0  0  0  0  0  0  0  0  0  0
   10.8424   -1.3738   23.9514 C   0  0  0  0  0  0  0  0  0  0  0  0
    9.5466   -2.1166   24.1575 C   0  0  0  0  0  0  0  0  0  0  0  0
    9.8285   -3.5558   24.2803 N   0  0  0  0  0  0  0  0  0  0  0  0
   10.3397   -3.9149   25.6368 C   0  0  0  0  0  0  0  0  0  0  0  0
   10.7009   -5.3773   25.5855 C   0  0  0  0  0  0  0  0  0  0  0  0
    9.4310   -6.1874   25.5133 C   0  0  0  0  0  0  0  0  0  0  0  0
    8.9275   -6.2518   26.8444 O   0  0  0  0  0  0  0  0  0  0  0  0
    8.3472   -5.5597   24.6536 C   0  0  0  0  0  0  0  0  0  0  0  0
    8.7934   -4.4616   23.7054 C   0  0  0  0  0  0  0  0  0  0  0  0
   11.6443   -1.6185   22.8213 C   0  0  0  0  0  0  0  0  0  0  0  0
  1  2  3  0
  2  3  1  0
  3  4  2  0
  4  5  1  0
  5  6  2  0
  6  7  1  0
  7  8  1  0
  7 16  2  0
  8  9  1  0
  9 10  1  0
 10 11  1  0
 11 12  1  0
 12 13  1  0
 12 14  1  0
 14 15  1  0
 15  9  1  0
 16  3  1  0
M  END
>  <TransFSScore>  (80)
0.113445

>  <SuCOS_Score>  (80)
0.641459

>  <FeatureStein>  (80)
0.513762

>  <SCORE.norm>  (80)
-0.921697

>  <Max_SuCOS_Score>  (80)
0.641459

>  <Cum_SuCOS_Score>  (80)
5.008933

>  <TransFSScore_50nM>  (80)
0.00758

>  <TransFSScore_1uM>  (80)
0.101044

>  <TransFSScore_10nM>  (80)
0.105066

>  <TransFSScore_200nM>  (80)
0.240092

>  <TETHERED ATOMS>  (80)
13,12,11,10,9,8,7,15,14

$$$$
N#Cc1cccc(CN2CCC(O)CC2)c1
     RDKit          3D

 16 17  0  0  0  0  0  0  0  0999 V2000
   14.2968   -1.4851   20.5448 N   0  0  0  0  0  0  0  0  0  0  0  0
   13.6724   -1.2113   21.4824 C   0  0  0  0  0  0  0  0  0  0  0  0
   12.8718   -0.9253   22.6371 C   0  0  0  0  0  0  0  0  0  0  0  0
   13.2888    0.0282   23.5671 C   0  0  0  0  0  0  0  0  0  0  0  0
   12.5009    0.3023   24.6849 C   0  0  0  0  0  0  0  0  0  0  0  0
   11.2982   -0.3798   24.8826 C   0  0  0  0  0  0  0  0  0  0  0  0
   10.8680   -1.3534   23.9669 C   0  0  0  0  0  0  0  0  0  0  0  0
    9.5700   -2.0890   24.1847 C   0  0  0  0  0  0  0  0  0  0  0  0
    9.8442   -3.5304   24.2984 N   0  0  0  0  0  0  0  0  0  0  0  0
   10.3230   -3.9057   25.6623 C   0  0  0  0  0  0  0  0  0  0  0  0
   10.6804   -5.3688   25.6035 C   0  0  0  0  0  0  0  0  0  0  0  0
    9.4098   -6.1735   25.4937 C   0  0  0  0  0  0  0  0  0  0  0  0
    8.8759   -6.2503   26.8122 O   0  0  0  0  0  0  0  0  0  0  0  0
    8.3480   -5.5328   24.6162 C   0  0  0  0  0  0  0  0  0  0  0  0
    8.8194   -4.4263   23.6903 C   0  0  0  0  0  0  0  0  0  0  0  0
   11.6642   -1.6111   22.8356 C   0  0  0  0  0  0  0  0  0  0  0  0
  1  2  3  0
  2  3  1  0
  3  4  2  0
  4  5  1  0
  5  6  2  0
  6  7  1  0
  7  8  1  0
  7 16  2  0
  8  9  1  0
  9 10  1  0
 10 11  1  0
 11 12  1  0
 12 13  1  0
 12 14  1  0
 14 15  1  0
 15  9  1  0
 16  3  1  0
M  END
>  <TransFSScore>  (81)
0.11252

>  <SuCOS_Score>  (81)
0.646112

>  <FeatureStein>  (81)
0.51422

>  <SCORE.norm>  (81)
-0.921248

>  <Max_SuCOS_Score>  (81)
0.646112

>  <Cum_SuCOS_Score>  (81)
5.005708

>  <TransFSScore_50nM>  (81)
0.007492

>  <TransFSScore_1uM>  (81)
0.105135

>  <TransFSScore_10nM>  (81)
0.106026

>  <TransFSScore_200nM>  (81)
0.231426

>  <TETHERED ATOMS>  (81)
13,12,11,10,9,8,7,15,14

$$$$
N#Cc1cccc(CN2CCC(O)CC2)c1
     RDKit          3D

 16 17  0  0  0  0  0  0  0  0999 V2000
   14.2765   -1.4392   20.5731 N   0  0  0  0  0  0  0  0  0  0  0  0
   13.6542   -1.1695   21.5133 C   0  0  0  0  0  0  0  0  0  0  0  0
   12.8565   -0.8887   22.6712 C   0  0  0  0  0  0  0  0  0  0  0  0
   13.2727    0.0652   23.6012 C   0  0  0  0  0  0  0  0  0  0  0  0
   12.4876    0.3341   24.7223 C   0  0  0  0  0  0  0  0  0  0  0  0
   11.2884   -0.3534   24.9230 C   0  0  0  0  0  0  0  0  0  0  0  0
   10.8592   -1.3274   24.0074 C   0  0  0  0  0  0  0  0  0  0  0  0
    9.5651   -2.0688   24.2285 C   0  0  0  0  0  0  0  0  0  0  0  0
    9.8440   -3.5106   24.3235 N   0  0  0  0  0  0  0  0  0  0  0  0
   10.3331   -3.9005   25.6797 C   0  0  0  0  0  0  0  0  0  0  0  0
   10.6940   -5.3618   25.6014 C   0  0  0  0  0  0  0  0  0  0  0  0
    9.4249   -6.1688   25.4908 C   0  0  0  0  0  0  0  0  0  0  0  0
    8.9001   -6.2624   26.8118 O   0  0  0  0  0  0  0  0  0  0  0  0
    8.3555   -5.5208   24.6280 C   0  0  0  0  0  0  0  0  0  0  0  0
    8.8176   -4.4022   23.7119 C   0  0  0  0  0  0  0  0  0  0  0  0
   11.6525   -1.5799   22.8729 C   0  0  0  0  0  0  0  0  0  0  0  0
  1  2  3  0
  2  3  1  0
  3  4  2  0
  4  5  1  0
  5  6  2  0
  6  7  1  0
  7  8  1  0
  7 16  2  0
  8  9  1  0
  9 10  1  0
 10 11  1  0
 11 12  1  0
 12 13  1  0
 12 14  1  0
 14 15  1  0
 15  9  1  0
 16  3  1  0
M  END
>  <TransFSScore>  (82)
0.118454

>  <SuCOS_Score>  (82)
0.641431

>  <FeatureStein>  (82)
0.511737

>  <SCORE.norm>  (82)
-0.918555

>  <Max_SuCOS_Score>  (82)
0.641431

>  <Cum_SuCOS_Score>  (82)
4.977435

>  <TransFSScore_50nM>  (82)
0.006959

>  <TransFSScore_1uM>  (82)
0.107174

>  <TransFSScore_10nM>  (82)
0.107108

>  <TransFSScore_200nM>  (82)
0.252574

>  <TETHERED ATOMS>  (82)
13,12,11,10,9,8,7,15,14

$$$$
N#Cc1cccc(CN2CCC(O)CC2)c1
     RDKit          3D

 16 17  0  0  0  0  0  0  0  0999 V2000
   14.3455   -1.4799   20.5514 N   0  0  0  0  0  0  0  0  0  0  0  0
   13.6894   -1.2175   21.4704 C   0  0  0  0  0  0  0  0  0  0  0  0
   12.8505   -0.9458   22.6011 C   0  0  0  0  0  0  0  0  0  0  0  0
   13.2283    0.0072   23.5482 C   0  0  0  0  0  0  0  0  0  0  0  0
   12.4032    0.2671   24.6423 C   0  0  0  0  0  0  0  0  0  0  0  0
   11.2022   -0.4285   24.7992 C   0  0  0  0  0  0  0  0  0  0  0  0
   10.8110   -1.4018   23.8659 C   0  0  0  0  0  0  0  0  0  0  0  0
    9.5147   -2.1519   24.0397 C   0  0  0  0  0  0  0  0  0  0  0  0
    9.8047   -3.5839   24.2167 N   0  0  0  0  0  0  0  0  0  0  0  0
   10.2992   -3.8916   25.5919 C   0  0  0  0  0  0  0  0  0  0  0  0
   10.6710   -5.3522   25.5968 C   0  0  0  0  0  0  0  0  0  0  0  0
    9.4078   -6.1737   25.5355 C   0  0  0  0  0  0  0  0  0  0  0  0
    8.8861   -6.1952   26.8609 O   0  0  0  0  0  0  0  0  0  0  0  0
    8.3320   -5.5843   24.6394 C   0  0  0  0  0  0  0  0  0  0  0  0
    8.7840   -4.5167   23.6596 C   0  0  0  0  0  0  0  0  0  0  0  0
   11.6446   -1.6452   22.7587 C   0  0  0  0  0  0  0  0  0  0  0  0
  1  2  3  0
  2  3  1  0
  3  4  2  0
  4  5  1  0
  5  6  2  0
  6  7  1  0
  7  8  1  0
  7 16  2  0
  8  9  1  0
  9 10  1  0
 10 11  1  0
 11 12  1  0
 12 13  1  0
 12 14  1  0
 14 15  1  0
 15  9  1  0
 16  3  1  0
M  END
>  <TransFSScore>  (83)
0.113677

>  <SuCOS_Score>  (83)
0.645788

>  <FeatureStein>  (83)
0.527844

>  <SCORE.norm>  (83)
-0.9185

>  <Max_SuCOS_Score>  (83)
0.645788

>  <Cum_SuCOS_Score>  (83)
5.085605

>  <TransFSScore_50nM>  (83)
0.007709

>  <TransFSScore_1uM>  (83)
0.094409

>  <TransFSScore_10nM>  (83)
0.105432

>  <TransFSScore_200nM>  (83)
0.247159

>  <TETHERED ATOMS>  (83)
13,12,11,10,9,8,7,15,14

$$$$
N#Cc1cccc(CN2CCC(O)CC2)c1
     RDKit          3D

 16 17  0  0  0  0  0  0  0  0999 V2000
   14.3179   -1.4805   20.5357 N   0  0  0  0  0  0  0  0  0  0  0  0
   13.6906   -1.2107   21.4726 C   0  0  0  0  0  0  0  0  0  0  0  0
   12.8867   -0.9298   22.6262 C   0  0  0  0  0  0  0  0  0  0  0  0
   13.2998    0.0214   23.5604 C   0  0  0  0  0  0  0  0  0  0  0  0
   12.5086    0.2905   24.6771 C   0  0  0  0  0  0  0  0  0  0  0  0
   11.3064   -0.3941   24.8694 C   0  0  0  0  0  0  0  0  0  0  0  0
   10.8802   -1.3654   23.9495 C   0  0  0  0  0  0  0  0  0  0  0  0
    9.5827   -2.1036   24.1615 C   0  0  0  0  0  0  0  0  0  0  0  0
    9.8603   -3.5437   24.2838 N   0  0  0  0  0  0  0  0  0  0  0  0
   10.3356   -3.9106   25.6513 C   0  0  0  0  0  0  0  0  0  0  0  0
   10.6969   -5.3730   25.6015 C   0  0  0  0  0  0  0  0  0  0  0  0
    9.4287   -6.1816   25.4918 C   0  0  0  0  0  0  0  0  0  0  0  0
    8.8907   -6.2527   26.8090 O   0  0  0  0  0  0  0  0  0  0  0  0
    8.3682   -5.5483   24.6075 C   0  0  0  0  0  0  0  0  0  0  0  0
    8.8398   -4.4455   23.6772 C   0  0  0  0  0  0  0  0  0  0  0  0
   11.6796   -1.6181   22.8194 C   0  0  0  0  0  0  0  0  0  0  0  0
  1  2  3  0
  2  3  1  0
  3  4  2  0
  4  5  1  0
  5  6  2  0
  6  7  1  0
  7  8  1  0
  7 16  2  0
  8  9  1  0
  9 10  1  0
 10 11  1  0
 11 12  1  0
 12 13  1  0
 12 14  1  0
 14 15  1  0
 15  9  1  0
 16  3  1  0
M  END
>  <TransFSScore>  (84)
0.112121

>  <SuCOS_Score>  (84)
0.64535

>  <FeatureStein>  (84)
0.50936

>  <SCORE.norm>  (84)
-0.91833

>  <Max_SuCOS_Score>  (84)
0.64535

>  <Cum_SuCOS_Score>  (84)
4.997435

>  <TransFSScore_50nM>  (84)
0.007702

>  <TransFSScore_1uM>  (84)
0.104403

>  <TransFSScore_10nM>  (84)
0.106695

>  <TransFSScore_200nM>  (84)
0.229685

>  <TETHERED ATOMS>  (84)
13,12,11,10,9,8,7,15,14

$$$$
N#Cc1cccc(CN2CCC(O)CC2)c1
     RDKit          3D

 16 17  0  0  0  0  0  0  0  0999 V2000
   14.2084   -1.4900   20.5108 N   0  0  0  0  0  0  0  0  0  0  0  0
   13.5712   -1.2251   21.4423 C   0  0  0  0  0  0  0  0  0  0  0  0
   12.7563   -0.9509   22.5899 C   0  0  0  0  0  0  0  0  0  0  0  0
   13.1412    0.0224   23.5132 C   0  0  0  0  0  0  0  0  0  0  0  0
   12.3396    0.2846   24.6241 C   0  0  0  0  0  0  0  0  0  0  0  0
   11.1552   -0.4290   24.8215 C   0  0  0  0  0  0  0  0  0  0  0  0
   10.7577   -1.4227   23.9127 C   0  0  0  0  0  0  0  0  0  0  0  0
    9.4794   -2.1921   24.1302 C   0  0  0  0  0  0  0  0  0  0  0  0
    9.7983   -3.6169   24.3153 N   0  0  0  0  0  0  0  0  0  0  0  0
   10.3223   -3.9025   25.6843 C   0  0  0  0  0  0  0  0  0  0  0  0
   10.7205   -5.3562   25.6962 C   0  0  0  0  0  0  0  0  0  0  0  0
    9.4715   -6.2006   25.6650 C   0  0  0  0  0  0  0  0  0  0  0  0
    8.9737   -6.2187   26.9996 O   0  0  0  0  0  0  0  0  0  0  0  0
    8.3696   -5.6392   24.7827 C   0  0  0  0  0  0  0  0  0  0  0  0
    8.7849   -4.5732   23.7851 C   0  0  0  0  0  0  0  0  0  0  0  0
   11.5672   -1.6683   22.7883 C   0  0  0  0  0  0  0  0  0  0  0  0
  1  2  3  0
  2  3  1  0
  3  4  2  0
  4  5  1  0
  5  6  2  0
  6  7  1  0
  7  8  1  0
  7 16  2  0
  8  9  1  0
  9 10  1  0
 10 11  1  0
 11 12  1  0
 12 13  1  0
 12 14  1  0
 14 15  1  0
 15  9  1  0
 16  3  1  0
M  END
>  <TransFSScore>  (85)
0.120537

>  <SuCOS_Score>  (85)
0.642089

>  <FeatureStein>  (85)
0.530131

>  <SCORE.norm>  (85)
-0.847572

>  <Max_SuCOS_Score>  (85)
0.642089

>  <Cum_SuCOS_Score>  (85)
5.085873

>  <TransFSScore_50nM>  (85)
0.008043

>  <TransFSScore_1uM>  (85)
0.089382

>  <TransFSScore_10nM>  (85)
0.105488

>  <TransFSScore_200nM>  (85)
0.279234

>  <TETHERED ATOMS>  (85)
13,12,11,10,9,8,7,15,14

$$$$
N#Cc1cccc(CN2CCC(O)CC2)c1
     RDKit          3D

 16 17  0  0  0  0  0  0  0  0999 V2000
   14.2046   -1.4912   20.5063 N   0  0  0  0  0  0  0  0  0  0  0  0
   13.5664   -1.2349   21.4396 C   0  0  0  0  0  0  0  0  0  0  0  0
   12.7503   -0.9714   22.5888 C   0  0  0  0  0  0  0  0  0  0  0  0
   13.1348   -0.0075   23.5221 C   0  0  0  0  0  0  0  0  0  0  0  0
   12.3319    0.2444   24.6345 C   0  0  0  0  0  0  0  0  0  0  0  0
   11.1467   -0.4702   24.8233 C   0  0  0  0  0  0  0  0  0  0  0  0
   10.7496   -1.4545   23.9043 C   0  0  0  0  0  0  0  0  0  0  0  0
    9.4704   -2.2250   24.1126 C   0  0  0  0  0  0  0  0  0  0  0  0
    9.7892   -3.6492   24.3018 N   0  0  0  0  0  0  0  0  0  0  0  0
   10.3288   -3.9281   25.6662 C   0  0  0  0  0  0  0  0  0  0  0  0
   10.7249   -5.3823   25.6815 C   0  0  0  0  0  0  0  0  0  0  0  0
    9.4742   -6.2249   25.6695 C   0  0  0  0  0  0  0  0  0  0  0  0
    8.9920   -6.2348   27.0100 O   0  0  0  0  0  0  0  0  0  0  0  0
    8.3630   -5.6666   24.7970 C   0  0  0  0  0  0  0  0  0  0  0  0
    8.7683   -4.6068   23.7888 C   0  0  0  0  0  0  0  0  0  0  0  0
   11.5603   -1.6897   22.7785 C   0  0  0  0  0  0  0  0  0  0  0  0
  1  2  3  0
  2  3  1  0
  3  4  2  0
  4  5  1  0
  5  6  2  0
  6  7  1  0
  7  8  1  0
  7 16  2  0
  8  9  1  0
  9 10  1  0
 10 11  1  0
 11 12  1  0
 12 13  1  0
 12 14  1  0
 14 15  1  0
 15  9  1  0
 16  3  1  0
M  END
>  <TransFSScore>  (86)
0.118431

>  <SuCOS_Score>  (86)
0.637239

>  <FeatureStein>  (86)
0.522897

>  <SCORE.norm>  (86)
-0.847577

>  <Max_SuCOS_Score>  (86)
0.637239

>  <Cum_SuCOS_Score>  (86)
5.064479

>  <TransFSScore_50nM>  (86)
0.008508

>  <TransFSScore_1uM>  (86)
0.086704

>  <TransFSScore_10nM>  (86)
0.105848

>  <TransFSScore_200nM>  (86)
0.272665

>  <TETHERED ATOMS>  (86)
13,12,11,10,9,8,7,15,14

$$$$
N#Cc1cccc(CN2CCC(O)CC2)c1
     RDKit          3D

 16 17  0  0  0  0  0  0  0  0999 V2000
   14.2155   -1.4972   20.5871 N   0  0  0  0  0  0  0  0  0  0  0  0
   13.5560   -1.2358   21.5041 C   0  0  0  0  0  0  0  0  0  0  0  0
   12.7145   -0.9663   22.6334 C   0  0  0  0  0  0  0  0  0  0  0  0
   13.0683    0.0162   23.5594 C   0  0  0  0  0  0  0  0  0  0  0  0
   12.2409    0.2737   24.6523 C   0  0  0  0  0  0  0  0  0  0  0  0
   11.0616   -0.4538   24.8292 C   0  0  0  0  0  0  0  0  0  0  0  0
   10.6952   -1.4567   23.9175 C   0  0  0  0  0  0  0  0  0  0  0  0
    9.4225   -2.2412   24.1128 C   0  0  0  0  0  0  0  0  0  0  0  0
    9.7560   -3.6588   24.3252 N   0  0  0  0  0  0  0  0  0  0  0  0
   10.2876   -3.9118   25.6977 C   0  0  0  0  0  0  0  0  0  0  0  0
   10.7001   -5.3609   25.7372 C   0  0  0  0  0  0  0  0  0  0  0  0
    9.4593   -6.2180   25.7274 C   0  0  0  0  0  0  0  0  0  0  0  0
    8.9663   -6.2143   27.0639 O   0  0  0  0  0  0  0  0  0  0  0  0
    8.3489   -5.6851   24.8381 C   0  0  0  0  0  0  0  0  0  0  0  0
    8.7503   -4.6353   23.8179 C   0  0  0  0  0  0  0  0  0  0  0  0
   11.5306   -1.6977   22.8111 C   0  0  0  0  0  0  0  0  0  0  0  0
  1  2  3  0
  2  3  1  0
  3  4  2  0
  4  5  1  0
  5  6  2  0
  6  7  1  0
  7  8  1  0
  7 16  2  0
  8  9  1  0
  9 10  1  0
 10 11  1  0
 11 12  1  0
 12 13  1  0
 12 14  1  0
 14 15  1  0
 15  9  1  0
 16  3  1  0
M  END
>  <TransFSScore>  (87)
0.120212

>  <SuCOS_Score>  (87)
0.63255

>  <FeatureStein>  (87)
0.531197

>  <SCORE.norm>  (87)
-0.841413

>  <Max_SuCOS_Score>  (87)
0.63255

>  <Cum_SuCOS_Score>  (87)
5.065526

>  <TransFSScore_50nM>  (87)
0.008413

>  <TransFSScore_1uM>  (87)
0.082652

>  <TransFSScore_10nM>  (87)
0.104988

>  <TransFSScore_200nM>  (87)
0.284794

>  <TETHERED ATOMS>  (87)
13,12,11,10,9,8,7,15,14

$$$$
N#Cc1cccc(CN2CCC(O)CC2)c1
     RDKit          3D

 16 17  0  0  0  0  0  0  0  0999 V2000
   14.1896   -1.5405   20.5391 N   0  0  0  0  0  0  0  0  0  0  0  0
   13.5642   -1.2671   21.4762 C   0  0  0  0  0  0  0  0  0  0  0  0
   12.7637   -0.9825   22.6313 C   0  0  0  0  0  0  0  0  0  0  0  0
   13.1639   -0.0060   23.5447 C   0  0  0  0  0  0  0  0  0  0  0  0
   12.3761    0.2664   24.6630 C   0  0  0  0  0  0  0  0  0  0  0  0
   11.1904   -0.4401   24.8777 C   0  0  0  0  0  0  0  0  0  0  0  0
   10.7777   -1.4367   23.9790 C   0  0  0  0  0  0  0  0  0  0  0  0
    9.4981   -2.1984   24.2151 C   0  0  0  0  0  0  0  0  0  0  0  0
    9.8106   -3.6257   24.3916 N   0  0  0  0  0  0  0  0  0  0  0  0
   10.3417   -3.9204   25.7560 C   0  0  0  0  0  0  0  0  0  0  0  0
   10.7323   -5.3761   25.7587 C   0  0  0  0  0  0  0  0  0  0  0  0
    9.4786   -6.2138   25.7314 C   0  0  0  0  0  0  0  0  0  0  0  0
    8.9891   -6.2356   27.0690 O   0  0  0  0  0  0  0  0  0  0  0  0
    8.3742   -5.6425   24.8586 C   0  0  0  0  0  0  0  0  0  0  0  0
    8.7889   -4.5741   23.8634 C   0  0  0  0  0  0  0  0  0  0  0  0
   11.5733   -1.6927   22.8469 C   0  0  0  0  0  0  0  0  0  0  0  0
  1  2  3  0
  2  3  1  0
  3  4  2  0
  4  5  1  0
  5  6  2  0
  6  7  1  0
  7  8  1  0
  7 16  2  0
  8  9  1  0
  9 10  1  0
 10 11  1  0
 11 12  1  0
 12 13  1  0
 12 14  1  0
 14 15  1  0
 15  9  1  0
 16  3  1  0
M  END
>  <TransFSScore>  (88)
0.118747

>  <SuCOS_Score>  (88)
0.640361

>  <FeatureStein>  (88)
0.518019

>  <SCORE.norm>  (88)
-0.840826

>  <Max_SuCOS_Score>  (88)
0.640361

>  <Cum_SuCOS_Score>  (88)
5.008046

>  <TransFSScore_50nM>  (88)
0.008647

>  <TransFSScore_1uM>  (88)
0.091886

>  <TransFSScore_10nM>  (88)
0.10346

>  <TransFSScore_200nM>  (88)
0.270996

>  <TETHERED ATOMS>  (88)
13,12,11,10,9,8,7,15,14

$$$$
N#Cc1cc(CN2CCC(O)CC2)ccn1
     RDKit          3D

 16 17  0  0  0  0  0  0  0  0999 V2000
   14.3978   -1.5231   20.3626 N   0  0  0  0  0  0  0  0  0  0  0  0
   13.6638   -1.3721   21.2436 C   0  0  0  0  0  0  0  0  0  0  0  0
   12.7959   -1.1306   22.3528 C   0  0  0  0  0  0  0  0  0  0  0  0
   11.5685   -1.7931   22.5053 C   0  0  0  0  0  0  0  0  0  0  0  0
   10.7510   -1.5236   23.6157 C   0  0  0  0  0  0  0  0  0  0  0  0
    9.4599   -2.2697   23.8436 C   0  0  0  0  0  0  0  0  0  0  0  0
    9.5556   -3.5474   24.5522 N   0  0  0  0  0  0  0  0  0  0  0  0
    8.3788   -4.4572   24.5677 C   0  0  0  0  0  0  0  0  0  0  0  0
    8.3496   -5.2963   25.8229 C   0  0  0  0  0  0  0  0  0  0  0  0
    9.6558   -6.0241   26.0390 C   0  0  0  0  0  0  0  0  0  0  0  0
    9.7129   -7.0721   25.0823 O   0  0  0  0  0  0  0  0  0  0  0  0
   10.8751   -5.1294   25.8586 C   0  0  0  0  0  0  0  0  0  0  0  0
   10.5261   -3.6545   25.6781 C   0  0  0  0  0  0  0  0  0  0  0  0
   11.2089   -0.5732   24.5416 C   0  0  0  0  0  0  0  0  0  0  0  0
   12.4386    0.0634   24.3510 C   0  0  0  0  0  0  0  0  0  0  0  0
   13.1857   -0.2316   23.2755 N   0  0  0  0  0  0  0  0  0  0  0  0
  1  2  3  0
  2  3  1  0
  3  4  2  0
  4  5  1  0
  5  6  1  0
  5 14  2  0
  6  7  1  0
  7  8  1  0
  8  9  1  0
  9 10  1  0
 10 11  1  0
 10 12  1  0
 12 13  1  0
 13  7  1  0
 14 15  1  0
 15 16  2  0
 16  3  1  0
M  END
>  <TransFSScore>  (89)
0.14112

>  <SuCOS_Score>  (89)
0.621416

>  <FeatureStein>  (89)
0.516048

>  <SCORE.norm>  (89)
-1.04211

>  <Max_SuCOS_Score>  (89)
0.621416

>  <Cum_SuCOS_Score>  (89)
4.654831

>  <TransFSScore_50nM>  (89)
0.025654

>  <TransFSScore_1uM>  (89)
0.050844

>  <TransFSScore_10nM>  (89)
0.015129

>  <TransFSScore_200nM>  (89)
0.472854

>  <TETHERED ATOMS>  (89)
11,10,9,8,7,6,5,13,12

$$$$
N#Cc1cc(CN2CCC(O)CC2)ccn1
     RDKit          3D

 16 17  0  0  0  0  0  0  0  0999 V2000
   14.4062   -1.4788   20.3541 N   0  0  0  0  0  0  0  0  0  0  0  0
   13.6765   -1.3415   21.2409 C   0  0  0  0  0  0  0  0  0  0  0  0
   12.8143   -1.1173   22.3582 C   0  0  0  0  0  0  0  0  0  0  0  0
   11.5858   -1.7792   22.5046 C   0  0  0  0  0  0  0  0  0  0  0  0
   10.7741   -1.5272   23.6233 C   0  0  0  0  0  0  0  0  0  0  0  0
    9.4820   -2.2738   23.8438 C   0  0  0  0  0  0  0  0  0  0  0  0
    9.5732   -3.5476   24.5600 N   0  0  0  0  0  0  0  0  0  0  0  0
    8.3914   -4.4508   24.5853 C   0  0  0  0  0  0  0  0  0  0  0  0
    8.3621   -5.2819   25.8457 C   0  0  0  0  0  0  0  0  0  0  0  0
    9.6650   -6.0155   26.0619 C   0  0  0  0  0  0  0  0  0  0  0  0
    9.7130   -7.0697   25.1116 O   0  0  0  0  0  0  0  0  0  0  0  0
   10.8886   -5.1286   25.8717 C   0  0  0  0  0  0  0  0  0  0  0  0
   10.5470   -3.6530   25.6833 C   0  0  0  0  0  0  0  0  0  0  0  0
   11.2386   -0.5944   24.5636 C   0  0  0  0  0  0  0  0  0  0  0  0
   12.4692    0.0423   24.3787 C   0  0  0  0  0  0  0  0  0  0  0  0
   13.2107   -0.2357   23.2947 N   0  0  0  0  0  0  0  0  0  0  0  0
  1  2  3  0
  2  3  1  0
  3  4  2  0
  4  5  1  0
  5  6  1  0
  5 14  2  0
  6  7  1  0
  7  8  1  0
  8  9  1  0
  9 10  1  0
 10 11  1  0
 10 12  1  0
 12 13  1  0
 13  7  1  0
 14 15  1  0
 15 16  2  0
 16  3  1  0
M  END
>  <TransFSScore>  (90)
0.142833

>  <SuCOS_Score>  (90)
0.623364

>  <FeatureStein>  (90)
0.514546

>  <SCORE.norm>  (90)
-1.04066

>  <Max_SuCOS_Score>  (90)
0.623364

>  <Cum_SuCOS_Score>  (90)
4.632749

>  <TransFSScore_50nM>  (90)
0.024537

>  <TransFSScore_1uM>  (90)
0.052298

>  <TransFSScore_10nM>  (90)
0.015572

>  <TransFSScore_200nM>  (90)
0.478923

>  <TETHERED ATOMS>  (90)
11,10,9,8,7,6,5,13,12

$$$$
N#Cc1cc(C(=O)N2CCC(O)CC2)cs1
     RDKit          3D

 16 17  0  0  0  0  0  0  0  0999 V2000
   14.2925   -1.5413   20.5877 N   0  0  0  0  0  0  0  0  0  0  0  0
   13.6030   -1.3385   21.4968 C   0  0  0  0  0  0  0  0  0  0  0  0
   12.7138   -1.1035   22.5918 C   0  0  0  0  0  0  0  0  0  0  0  0
   11.5773   -1.8431   22.8626 C   0  0  0  0  0  0  0  0  0  0  0  0
   10.8802   -1.3637   24.0316 C   0  0  0  0  0  0  0  0  0  0  0  0
    9.5970   -1.8444   24.5068 C   0  0  0  0  0  0  0  0  0  0  0  0
    8.7425   -1.2044   25.0850 O   0  0  0  0  0  0  0  0  0  0  0  0
    9.4972   -3.2911   24.4918 N   0  0  0  0  0  0  0  0  0  0  0  0
   10.4682   -3.7897   25.5164 C   0  0  0  0  0  0  0  0  0  0  0  0
   10.3372   -5.2801   25.6064 C   0  0  0  0  0  0  0  0  0  0  0  0
    8.9557   -5.4039   26.1551 C   0  0  0  0  0  0  0  0  0  0  0  0
    8.7952   -6.3425   27.1446 O   0  0  0  0  0  0  0  0  0  0  0  0
    7.9062   -5.1773   25.1175 C   0  0  0  0  0  0  0  0  0  0  0  0
    8.1043   -3.8179   24.4452 C   0  0  0  0  0  0  0  0  0  0  0  0
   11.5241   -0.2694   24.5857 C   0  0  0  0  0  0  0  0  0  0  0  0
   12.9276    0.1440   23.7268 S   0  0  0  0  0  0  0  0  0  0  0  0
  1  2  3  0
  2  3  1  0
  3  4  2  0
  4  5  1  0
  5  6  1  0
  5 15  2  0
  6  7  2  0
  6  8  1  0
  8  9  1  0
  9 10  1  0
 10 11  1  0
 11 12  1  0
 11 13  1  0
 13 14  1  0
 14  8  1  0
 15 16  1  0
 16  3  1  0
M  END
>  <TransFSScore>  (91)
0.141933

>  <SuCOS_Score>  (91)
0.664177

>  <FeatureStein>  (91)
0.585746

>  <SCORE.norm>  (91)
-0.857456

>  <Max_SuCOS_Score>  (91)
0.664177

>  <Cum_SuCOS_Score>  (91)
5.220795

>  <TransFSScore_50nM>  (91)
0.003861

>  <TransFSScore_1uM>  (91)
0.401869

>  <TransFSScore_10nM>  (91)
0.020989

>  <TransFSScore_200nM>  (91)
0.141014

>  <TETHERED ATOMS>  (91)
12,11,10,9,8,6,5,4,3,16,15,14,13

$$$$
N#Cc1cc(C(=O)N2CCC(O)CC2)cs1
     RDKit          3D

 16 17  0  0  0  0  0  0  0  0999 V2000
   14.2745   -1.5548   20.6088 N   0  0  0  0  0  0  0  0  0  0  0  0
   13.5876   -1.3494   21.5193 C   0  0  0  0  0  0  0  0  0  0  0  0
   12.7015   -1.1115   22.6162 C   0  0  0  0  0  0  0  0  0  0  0  0
   11.5683   -1.8532   22.8949 C   0  0  0  0  0  0  0  0  0  0  0  0
   10.8738   -1.3699   24.0638 C   0  0  0  0  0  0  0  0  0  0  0  0
    9.5938   -1.8521   24.5460 C   0  0  0  0  0  0  0  0  0  0  0  0
    8.7534   -1.2202   25.1529 O   0  0  0  0  0  0  0  0  0  0  0  0
    9.4818   -3.2973   24.4963 N   0  0  0  0  0  0  0  0  0  0  0  0
   10.4637   -3.8291   25.4934 C   0  0  0  0  0  0  0  0  0  0  0  0
   10.3217   -5.3202   25.5480 C   0  0  0  0  0  0  0  0  0  0  0  0
    8.9475   -5.4469   26.1141 C   0  0  0  0  0  0  0  0  0  0  0  0
    8.7938   -6.4087   27.0821 O   0  0  0  0  0  0  0  0  0  0  0  0
    7.8846   -5.1859   25.0984 C   0  0  0  0  0  0  0  0  0  0  0  0
    8.0839   -3.8116   24.4575 C   0  0  0  0  0  0  0  0  0  0  0  0
   11.5161   -0.2705   24.6098 C   0  0  0  0  0  0  0  0  0  0  0  0
   12.9152    0.1427   23.7437 S   0  0  0  0  0  0  0  0  0  0  0  0
  1  2  3  0
  2  3  1  0
  3  4  2  0
  4  5  1  0
  5  6  1  0
  5 15  2  0
  6  7  2  0
  6  8  1  0
  8  9  1  0
  9 10  1  0
 10 11  1  0
 11 12  1  0
 11 13  1  0
 13 14  1  0
 14  8  1  0
 15 16  1  0
 16  3  1  0
M  END
>  <TransFSScore>  (92)
0.144954

>  <SuCOS_Score>  (92)
0.651902

>  <FeatureStein>  (92)
0.586417

>  <SCORE.norm>  (92)
-0.856799

>  <Max_SuCOS_Score>  (92)
0.651902

>  <Cum_SuCOS_Score>  (92)
5.190985

>  <TransFSScore_50nM>  (92)
0.004083

>  <TransFSScore_1uM>  (92)
0.401944

>  <TransFSScore_10nM>  (92)
0.020741

>  <TransFSScore_200nM>  (92)
0.153049

>  <TETHERED ATOMS>  (92)
12,11,10,9,8,6,5,4,3,16,15,14,13

$$$$
N#Cc1cc(C(=O)N2CCC(O)CC2)cs1
     RDKit          3D

 16 17  0  0  0  0  0  0  0  0999 V2000
   14.3093   -1.5227   20.5776 N   0  0  0  0  0  0  0  0  0  0  0  0
   13.6150   -1.3291   21.4850 C   0  0  0  0  0  0  0  0  0  0  0  0
   12.7201   -1.1053   22.5777 C   0  0  0  0  0  0  0  0  0  0  0  0
   11.5856   -1.8517   22.8386 C   0  0  0  0  0  0  0  0  0  0  0  0
   10.8814   -1.3832   24.0076 C   0  0  0  0  0  0  0  0  0  0  0  0
    9.5983   -1.8727   24.4740 C   0  0  0  0  0  0  0  0  0  0  0  0
    8.7360   -1.2390   25.0475 O   0  0  0  0  0  0  0  0  0  0  0  0
    9.5080   -3.3201   24.4567 N   0  0  0  0  0  0  0  0  0  0  0  0
   10.4755   -3.8136   25.4870 C   0  0  0  0  0  0  0  0  0  0  0  0
   10.3536   -5.3049   25.5744 C   0  0  0  0  0  0  0  0  0  0  0  0
    8.9694   -5.4383   26.1140 C   0  0  0  0  0  0  0  0  0  0  0  0
    8.8086   -6.3791   27.1014 O   0  0  0  0  0  0  0  0  0  0  0  0
    7.9252   -5.2173   25.0699 C   0  0  0  0  0  0  0  0  0  0  0  0
    8.1187   -3.8557   24.4005 C   0  0  0  0  0  0  0  0  0  0  0  0
   11.5180   -0.2897   24.5719 C   0  0  0  0  0  0  0  0  0  0  0  0
   12.9233    0.1355   23.7218 S   0  0  0  0  0  0  0  0  0  0  0  0
  1  2  3  0
  2  3  1  0
  3  4  2  0
  4  5  1  0
  5  6  1  0
  5 15  2  0
  6  7  2  0
  6  8  1  0
  8  9  1  0
  9 10  1  0
 10 11  1  0
 11 12  1  0
 11 13  1  0
 13 14  1  0
 14  8  1  0
 15 16  1  0
 16  3  1  0
M  END
>  <TransFSScore>  (93)
0.142105

>  <SuCOS_Score>  (93)
0.660798

>  <FeatureStein>  (93)
0.579332

>  <SCORE.norm>  (93)
-0.855244

>  <Max_SuCOS_Score>  (93)
0.660798

>  <Cum_SuCOS_Score>  (93)
5.215666

>  <TransFSScore_50nM>  (93)
0.003801

>  <TransFSScore_1uM>  (93)
0.399646

>  <TransFSScore_10nM>  (93)
0.020923

>  <TransFSScore_200nM>  (93)
0.144049

>  <TETHERED ATOMS>  (93)
12,11,10,9,8,6,5,4,3,16,15,14,13

$$$$
N#Cc1cc(C(=O)N2CCC(O)CC2)cs1
     RDKit          3D

 16 17  0  0  0  0  0  0  0  0999 V2000
   14.2919   -1.5074   20.5728 N   0  0  0  0  0  0  0  0  0  0  0  0
   13.6049   -1.3120   21.4854 C   0  0  0  0  0  0  0  0  0  0  0  0
   12.7186   -1.0857   22.5846 C   0  0  0  0  0  0  0  0  0  0  0  0
   11.5809   -1.8252   22.8505 C   0  0  0  0  0  0  0  0  0  0  0  0
   10.8875   -1.3558   24.0257 C   0  0  0  0  0  0  0  0  0  0  0  0
    9.6041   -1.8380   24.4988 C   0  0  0  0  0  0  0  0  0  0  0  0
    8.7469   -1.1985   25.0735 O   0  0  0  0  0  0  0  0  0  0  0  0
    9.5074   -3.2850   24.4870 N   0  0  0  0  0  0  0  0  0  0  0  0
   10.4769   -3.7791   25.5151 C   0  0  0  0  0  0  0  0  0  0  0  0
   10.3488   -5.2696   25.6083 C   0  0  0  0  0  0  0  0  0  0  0  0
    8.9662   -5.3951   26.1538 C   0  0  0  0  0  0  0  0  0  0  0  0
    8.8052   -6.3316   27.1451 O   0  0  0  0  0  0  0  0  0  0  0  0
    7.9188   -5.1731   25.1131 C   0  0  0  0  0  0  0  0  0  0  0  0
    8.1156   -3.8148   24.4382 C   0  0  0  0  0  0  0  0  0  0  0  0
   11.5353   -0.2686   24.5893 C   0  0  0  0  0  0  0  0  0  0  0  0
   12.9380    0.1498   23.7315 S   0  0  0  0  0  0  0  0  0  0  0  0
  1  2  3  0
  2  3  1  0
  3  4  2  0
  4  5  1  0
  5  6  1  0
  5 15  2  0
  6  7  2  0
  6  8  1  0
  8  9  1  0
  9 10  1  0
 10 11  1  0
 11 12  1  0
 11 13  1  0
 13 14  1  0
 14  8  1  0
 15 16  1  0
 16  3  1  0
M  END
>  <TransFSScore>  (94)
0.142077

>  <SuCOS_Score>  (94)
0.665523

>  <FeatureStein>  (94)
0.584996

>  <SCORE.norm>  (94)
-0.853201

>  <Max_SuCOS_Score>  (94)
0.665523

>  <Cum_SuCOS_Score>  (94)
5.227834

>  <TransFSScore_50nM>  (94)
0.003736

>  <TransFSScore_1uM>  (94)
0.400991

>  <TransFSScore_10nM>  (94)
0.020968

>  <TransFSScore_200nM>  (94)
0.142614

>  <TETHERED ATOMS>  (94)
12,11,10,9,8,6,5,4,3,16,15,14,13

$$$$
N#Cc1cc(C(=O)N2CCC(O)CC2)cs1
     RDKit          3D

 16 17  0  0  0  0  0  0  0  0999 V2000
   14.3145   -1.4861   20.5394 N   0  0  0  0  0  0  0  0  0  0  0  0
   13.6587   -1.2803   21.4725 C   0  0  0  0  0  0  0  0  0  0  0  0
   12.8099   -1.0401   22.5980 C   0  0  0  0  0  0  0  0  0  0  0  0
   11.6633   -1.7546   22.8927 C   0  0  0  0  0  0  0  0  0  0  0  0
   11.0151   -1.2762   24.0898 C   0  0  0  0  0  0  0  0  0  0  0  0
    9.7349   -1.7314   24.5973 C   0  0  0  0  0  0  0  0  0  0  0  0
    8.9247   -1.0849   25.2294 O   0  0  0  0  0  0  0  0  0  0  0  0
    9.5858   -3.1727   24.5367 N   0  0  0  0  0  0  0  0  0  0  0  0
   10.5768   -3.7385   25.5057 C   0  0  0  0  0  0  0  0  0  0  0  0
   10.3989   -5.2261   25.5497 C   0  0  0  0  0  0  0  0  0  0  0  0
    9.0354   -5.3243   26.1465 C   0  0  0  0  0  0  0  0  0  0  0  0
    8.8802   -6.2916   27.1088 O   0  0  0  0  0  0  0  0  0  0  0  0
    7.9562   -5.0271   25.1583 C   0  0  0  0  0  0  0  0  0  0  0  0
    8.1750   -3.6519   24.5257 C   0  0  0  0  0  0  0  0  0  0  0  0
   11.7040   -0.2076   24.6402 C   0  0  0  0  0  0  0  0  0  0  0  0
   13.0908    0.1833   23.7445 S   0  0  0  0  0  0  0  0  0  0  0  0
  1  2  3  0
  2  3  1  0
  3  4  2  0
  4  5  1  0
  5  6  1  0
  5 15  2  0
  6  7  2  0
  6  8  1  0
  8  9  1  0
  9 10  1  0
 10 11  1  0
 11 12  1  0
 11 13  1  0
 13 14  1  0
 14  8  1  0
 15 16  1  0
 16  3  1  0
M  END
>  <TransFSScore>  (95)
0.141863

>  <SuCOS_Score>  (95)
0.673596

>  <FeatureStein>  (95)
0.571981

>  <SCORE.norm>  (95)
-0.851287

>  <Max_SuCOS_Score>  (95)
0.673596

>  <Cum_SuCOS_Score>  (95)
5.175515

>  <TransFSScore_50nM>  (95)
0.003269

>  <TransFSScore_1uM>  (95)
0.380156

>  <TransFSScore_10nM>  (95)
0.018753

>  <TransFSScore_200nM>  (95)
0.165272

>  <TETHERED ATOMS>  (95)
12,11,10,9,8,6,5,4,3,16,15,14,13

$$$$
N#Cc1cc(C(=O)N2CCC(O)CC2)cs1
     RDKit          3D

 16 17  0  0  0  0  0  0  0  0999 V2000
   14.2495   -1.5593   20.5127 N   0  0  0  0  0  0  0  0  0  0  0  0
   13.5859   -1.3564   21.4409 C   0  0  0  0  0  0  0  0  0  0  0  0
   12.7279   -1.1207   22.5603 C   0  0  0  0  0  0  0  0  0  0  0  0
   11.5899   -1.8493   22.8540 C   0  0  0  0  0  0  0  0  0  0  0  0
   10.9287   -1.3721   24.0445 C   0  0  0  0  0  0  0  0  0  0  0  0
    9.6525   -1.8419   24.5484 C   0  0  0  0  0  0  0  0  0  0  0  0
    8.8313   -1.2035   25.1746 O   0  0  0  0  0  0  0  0  0  0  0  0
    9.5224   -3.2853   24.4930 N   0  0  0  0  0  0  0  0  0  0  0  0
   10.5166   -3.8343   25.4683 C   0  0  0  0  0  0  0  0  0  0  0  0
   10.3579   -5.3239   25.5175 C   0  0  0  0  0  0  0  0  0  0  0  0
    8.9933   -5.4376   26.1090 C   0  0  0  0  0  0  0  0  0  0  0  0
    8.8466   -6.4030   27.0745 O   0  0  0  0  0  0  0  0  0  0  0  0
    7.9145   -5.1583   25.1152 C   0  0  0  0  0  0  0  0  0  0  0  0
    8.1180   -3.7829   24.4780 C   0  0  0  0  0  0  0  0  0  0  0  0
   11.5996   -0.2902   24.5911 C   0  0  0  0  0  0  0  0  0  0  0  0
   12.9854    0.1143   23.6999 S   0  0  0  0  0  0  0  0  0  0  0  0
  1  2  3  0
  2  3  1  0
  3  4  2  0
  4  5  1  0
  5  6  1  0
  5 15  2  0
  6  7  2  0
  6  8  1  0
  8  9  1  0
  9 10  1  0
 10 11  1  0
 11 12  1  0
 11 13  1  0
 13 14  1  0
 14  8  1  0
 15 16  1  0
 16  3  1  0
M  END
>  <TransFSScore>  (96)
0.141513

>  <SuCOS_Score>  (96)
0.663463

>  <FeatureStein>  (96)
0.578243

>  <SCORE.norm>  (96)
-0.85025

>  <Max_SuCOS_Score>  (96)
0.663463

>  <Cum_SuCOS_Score>  (96)
5.188282

>  <TransFSScore_50nM>  (96)
0.003701

>  <TransFSScore_1uM>  (96)
0.402102

>  <TransFSScore_10nM>  (96)
0.019463

>  <TransFSScore_200nM>  (96)
0.140788

>  <TETHERED ATOMS>  (96)
12,11,10,9,8,6,5,4,3,16,15,14,13

$$$$
N#Cc1cc(C(=O)N2CCC(O)CC2)cs1
     RDKit          3D

 16 17  0  0  0  0  0  0  0  0999 V2000
   14.2470   -1.5545   20.5638 N   0  0  0  0  0  0  0  0  0  0  0  0
   13.5604   -1.3558   21.4760 C   0  0  0  0  0  0  0  0  0  0  0  0
   12.6747   -1.1259   22.5749 C   0  0  0  0  0  0  0  0  0  0  0  0
   11.5423   -1.8704   22.8493 C   0  0  0  0  0  0  0  0  0  0  0  0
   10.8480   -1.3955   24.0217 C   0  0  0  0  0  0  0  0  0  0  0  0
    9.5687   -1.8820   24.5014 C   0  0  0  0  0  0  0  0  0  0  0  0
    8.7089   -1.2435   25.0733 O   0  0  0  0  0  0  0  0  0  0  0  0
    9.4808   -3.3296   24.5005 N   0  0  0  0  0  0  0  0  0  0  0  0
   10.4555   -3.8102   25.5300 C   0  0  0  0  0  0  0  0  0  0  0  0
   10.3368   -5.3007   25.6345 C   0  0  0  0  0  0  0  0  0  0  0  0
    8.9561   -5.4305   26.1841 C   0  0  0  0  0  0  0  0  0  0  0  0
    8.8031   -6.3607   27.1827 O   0  0  0  0  0  0  0  0  0  0  0  0
    7.9050   -5.2226   25.1443 C   0  0  0  0  0  0  0  0  0  0  0  0
    8.0921   -3.8681   24.4588 C   0  0  0  0  0  0  0  0  0  0  0  0
   11.4898   -0.2994   24.5749 C   0  0  0  0  0  0  0  0  0  0  0  0
   12.8881    0.1208   23.7108 S   0  0  0  0  0  0  0  0  0  0  0  0
  1  2  3  0
  2  3  1  0
  3  4  2  0
  4  5  1  0
  5  6  1  0
  5 15  2  0
  6  7  2  0
  6  8  1  0
  8  9  1  0
  9 10  1  0
 10 11  1  0
 11 12  1  0
 11 13  1  0
 13 14  1  0
 14  8  1  0
 15 16  1  0
 16  3  1  0
M  END
>  <TransFSScore>  (97)
0.142858

>  <SuCOS_Score>  (97)
0.658717

>  <FeatureStein>  (97)
0.586289

>  <SCORE.norm>  (97)
-0.84917

>  <Max_SuCOS_Score>  (97)
0.658717

>  <Cum_SuCOS_Score>  (97)
5.211863

>  <TransFSScore_50nM>  (97)
0.003918

>  <TransFSScore_1uM>  (97)
0.413611

>  <TransFSScore_10nM>  (97)
0.021979

>  <TransFSScore_200nM>  (97)
0.131925

>  <TETHERED ATOMS>  (97)
12,11,10,9,8,6,5,4,3,16,15,14,13

$$$$
N#Cc1cc(C(=O)N2CCC(O)CC2)cs1
     RDKit          3D

 16 17  0  0  0  0  0  0  0  0999 V2000
   14.2909   -1.6238   20.6706 N   0  0  0  0  0  0  0  0  0  0  0  0
   13.4945   -1.4424   21.4928 C   0  0  0  0  0  0  0  0  0  0  0  0
   12.4785   -1.2408   22.4786 C   0  0  0  0  0  0  0  0  0  0  0  0
   11.4188   -2.0979   22.7114 C   0  0  0  0  0  0  0  0  0  0  0  0
   10.5554   -1.6242   23.7661 C   0  0  0  0  0  0  0  0  0  0  0  0
    9.2990   -2.2286   24.1655 C   0  0  0  0  0  0  0  0  0  0  0  0
    8.2526   -1.6589   24.3990 O   0  0  0  0  0  0  0  0  0  0  0  0
    9.4423   -3.6173   24.5584 N   0  0  0  0  0  0  0  0  0  0  0  0
   10.2549   -3.6163   25.8157 C   0  0  0  0  0  0  0  0  0  0  0  0
   10.3541   -5.0257   26.3159 C   0  0  0  0  0  0  0  0  0  0  0  0
    8.9295   -5.2960   26.6662 C   0  0  0  0  0  0  0  0  0  0  0  0
    8.7285   -5.9601   27.8512 O   0  0  0  0  0  0  0  0  0  0  0  0
    8.0881   -5.5733   25.4643 C   0  0  0  0  0  0  0  0  0  0  0  0
    8.1926   -4.4229   24.4618 C   0  0  0  0  0  0  0  0  0  0  0  0
   11.0033   -0.4164   24.2761 C   0  0  0  0  0  0  0  0  0  0  0  0
   12.4249    0.1075   23.5128 S   0  0  0  0  0  0  0  0  0  0  0  0
  1  2  3  0
  2  3  1  0
  3  4  2  0
  4  5  1  0
  5  6  1  0
  5 15  2  0
  6  7  2  0
  6  8  1  0
  8  9  1  0
  9 10  1  0
 10 11  1  0
 11 12  1  0
 11 13  1  0
 13 14  1  0
 14  8  1  0
 15 16  1  0
 16  3  1  0
M  END
>  <TransFSScore>  (98)
0.156085

>  <SuCOS_Score>  (98)
0.63221

>  <FeatureStein>  (98)
0.55497

>  <SCORE.norm>  (98)
-0.844928

>  <Max_SuCOS_Score>  (98)
0.63221

>  <Cum_SuCOS_Score>  (98)
5.071623

>  <TransFSScore_50nM>  (98)
0.009406

>  <TransFSScore_1uM>  (98)
0.447663

>  <TransFSScore_10nM>  (98)
0.046252

>  <TransFSScore_200nM>  (98)
0.12102

>  <TETHERED ATOMS>  (98)
12,11,10,9,8,6,5,4,3,16,15,14,13

$$$$
N#Cc1cc(C(=O)N2CCC(O)CC2)cs1
     RDKit          3D

 16 17  0  0  0  0  0  0  0  0999 V2000
   14.2761   -1.5855   20.6279 N   0  0  0  0  0  0  0  0  0  0  0  0
   13.4882   -1.4210   21.4618 C   0  0  0  0  0  0  0  0  0  0  0  0
   12.4822   -1.2389   22.4617 C   0  0  0  0  0  0  0  0  0  0  0  0
   11.4169   -2.0932   22.6788 C   0  0  0  0  0  0  0  0  0  0  0  0
   10.5665   -1.6425   23.7540 C   0  0  0  0  0  0  0  0  0  0  0  0
    9.3082   -2.2473   24.1466 C   0  0  0  0  0  0  0  0  0  0  0  0
    8.2581   -1.6787   24.3658 O   0  0  0  0  0  0  0  0  0  0  0  0
    9.4517   -3.6323   24.5521 N   0  0  0  0  0  0  0  0  0  0  0  0
   10.2526   -3.6188   25.8168 C   0  0  0  0  0  0  0  0  0  0  0  0
   10.3510   -5.0238   26.3294 C   0  0  0  0  0  0  0  0  0  0  0  0
    8.9240   -5.2953   26.6686 C   0  0  0  0  0  0  0  0  0  0  0  0
    8.7138   -5.9504   27.8571 O   0  0  0  0  0  0  0  0  0  0  0  0
    8.0946   -5.5848   25.4613 C   0  0  0  0  0  0  0  0  0  0  0  0
    8.2052   -4.4423   24.4505 C   0  0  0  0  0  0  0  0  0  0  0  0
   11.0293   -0.4538   24.2945 C   0  0  0  0  0  0  0  0  0  0  0  0
   12.4492    0.0795   23.5344 S   0  0  0  0  0  0  0  0  0  0  0  0
  1  2  3  0
  2  3  1  0
  3  4  2  0
  4  5  1  0
  5  6  1  0
  5 15  2  0
  6  7  2  0
  6  8  1  0
  8  9  1  0
  9 10  1  0
 10 11  1  0
 11 12  1  0
 11 13  1  0
 13 14  1  0
 14  8  1  0
 15 16  1  0
 16  3  1  0
M  END
>  <TransFSScore>  (99)
0.158387

>  <SuCOS_Score>  (99)
0.63267

>  <FeatureStein>  (99)
0.54883

>  <SCORE.norm>  (99)
-0.843709

>  <Max_SuCOS_Score>  (99)
0.63267

>  <Cum_SuCOS_Score>  (99)
5.05313

>  <TransFSScore_50nM>  (99)
0.009371

>  <TransFSScore_1uM>  (99)
0.44808

>  <TransFSScore_10nM>  (99)
0.048853

>  <TransFSScore_200nM>  (99)
0.127243

>  <TETHERED ATOMS>  (99)
12,11,10,9,8,6,5,4,3,16,15,14,13

$$$$
N#Cc1cc(C(=O)N2CCC(O)CC2)cs1
     RDKit          3D

 16 17  0  0  0  0  0  0  0  0999 V2000
   14.3031   -1.5446   20.5931 N   0  0  0  0  0  0  0  0  0  0  0  0
   13.5103   -1.3878   21.4237 C   0  0  0  0  0  0  0  0  0  0  0  0
   12.4985   -1.2152   22.4193 C   0  0  0  0  0  0  0  0  0  0  0  0
   11.4351   -2.0746   22.6259 C   0  0  0  0  0  0  0  0  0  0  0  0
   10.5775   -1.6333   23.6992 C   0  0  0  0  0  0  0  0  0  0  0  0
    9.3193   -2.2448   24.0817 C   0  0  0  0  0  0  0  0  0  0  0  0
    8.2640   -1.6822   24.2906 O   0  0  0  0  0  0  0  0  0  0  0  0
    9.4674   -3.6283   24.4908 N   0  0  0  0  0  0  0  0  0  0  0  0
   10.2570   -3.6081   25.7625 C   0  0  0  0  0  0  0  0  0  0  0  0
   10.3591   -5.0117   26.2782 C   0  0  0  0  0  0  0  0  0  0  0  0
    8.9308   -5.2911   26.6053 C   0  0  0  0  0  0  0  0  0  0  0  0
    8.7140   -5.9455   27.7929 O   0  0  0  0  0  0  0  0  0  0  0  0
    8.1139   -5.5874   25.3911 C   0  0  0  0  0  0  0  0  0  0  0  0
    8.2267   -4.4458   24.3795 C   0  0  0  0  0  0  0  0  0  0  0  0
   11.0332   -0.4461   24.2492 C   0  0  0  0  0  0  0  0  0  0  0  0
   12.4551    0.0967   23.4996 S   0  0  0  0  0  0  0  0  0  0  0  0
  1  2  3  0
  2  3  1  0
  3  4  2  0
  4  5  1  0
  5  6  1  0
  5 15  2  0
  6  7  2  0
  6  8  1  0
  8  9  1  0
  9 10  1  0
 10 11  1  0
 11 12  1  0
 11 13  1  0
 13 14  1  0
 14  8  1  0
 15 16  1  0
 16  3  1  0
M  END
>  <TransFSScore>  (100)
0.154276

>  <SuCOS_Score>  (100)
0.636398

>  <FeatureStein>  (100)
0.547187

>  <SCORE.norm>  (100)
-0.842444

>  <Max_SuCOS_Score>  (100)
0.636398

>  <Cum_SuCOS_Score>  (100)
5.078979

>  <TransFSScore_50nM>  (100)
0.009485

>  <TransFSScore_1uM>  (100)
0.434838

>  <TransFSScore_10nM>  (100)
0.045913

>  <TransFSScore_200nM>  (100)
0.126868

>  <TETHERED ATOMS>  (100)
12,11,10,9,8,6,5,4,3,16,15,14,13

$$$$
OC1CCN(Cc2cncc(C(F)(F)F)c2)CC1
     RDKit          3D

 18 19  0  0  0  0  0  0  0  0999 V2000
    8.7228   -6.2162   27.2643 O   0  0  0  0  0  0  0  0  0  0  0  0
    9.1925   -6.2799   25.9217 C   0  0  0  0  0  0  0  0  0  0  0  0
   10.4775   -5.4907   25.8996 C   0  0  0  0  0  0  0  0  0  0  0  0
   10.1372   -4.0246   25.8503 C   0  0  0  0  0  0  0  0  0  0  0  0
    9.6138   -3.7551   24.4767 N   0  0  0  0  0  0  0  0  0  0  0  0
    9.3575   -2.3277   24.2409 C   0  0  0  0  0  0  0  0  0  0  0  0
   10.6588   -1.5843   24.0176 C   0  0  0  0  0  0  0  0  0  0  0  0
   10.9311   -0.4008   24.7219 C   0  0  0  0  0  0  0  0  0  0  0  0
   12.0556    0.2991   24.4755 N   0  0  0  0  0  0  0  0  0  0  0  0
   12.9626   -0.0786   23.5574 C   0  0  0  0  0  0  0  0  0  0  0  0
   12.7543   -1.2370   22.8155 C   0  0  0  0  0  0  0  0  0  0  0  0
   13.7620   -1.6287   21.7605 C   0  0  0  0  0  0  0  0  0  0  0  0
   14.6962   -0.6661   21.5886 F   0  0  0  0  0  0  0  0  0  0  0  0
   13.1763   -1.8403   20.5566 F   0  0  0  0  0  0  0  0  0  0  0  0
   14.4160   -2.7679   22.0898 F   0  0  0  0  0  0  0  0  0  0  0  0
   11.5839   -1.9811   23.0389 C   0  0  0  0  0  0  0  0  0  0  0  0
    8.5290   -4.6790   24.0052 C   0  0  0  0  0  0  0  0  0  0  0  0
    8.0986   -5.7016   25.0404 C   0  0  0  0  0  0  0  0  0  0  0  0
  1  2  1  0
  2  3  1  0
  3  4  1  0
  4  5  1  0
  5  6  1  0
  5 17  1  0
  6  7  1  0
  7  8  2  0
  8  9  1  0
  9 10  2  0
 10 11  1  0
 11 12  1  0
 11 16  2  0
 12 13  1  0
 12 14  1  0
 12 15  1  0
 16  7  1  0
 17 18  1  0
 18  2  1  0
M  END
>  <TransFSScore>  (101)
0.11103

>  <SuCOS_Score>  (101)
0.571894

>  <FeatureStein>  (101)
0.550177

>  <SCORE.norm>  (101)
-0.692548

>  <Max_SuCOS_Score>  (101)
0.672675

>  <Cum_SuCOS_Score>  (101)
4.867562

>  <TransFSScore_50nM>  (101)
0.058337

>  <TransFSScore_1uM>  (101)
0.075662

>  <TransFSScore_10nM>  (101)
0.016341

>  <TransFSScore_200nM>  (101)
0.29378

>  <TETHERED ATOMS>  (101)
1,2,3,4,5,6,7,17,18

$$$$
OC1CCN(Cc2cncc(C(F)(F)F)c2)CC1
     RDKit          3D

 18 19  0  0  0  0  0  0  0  0999 V2000
    8.6987   -6.1916   27.2725 O   0  0  0  0  0  0  0  0  0  0  0  0
    9.1933   -6.2526   25.9387 C   0  0  0  0  0  0  0  0  0  0  0  0
   10.4740   -5.4561   25.9402 C   0  0  0  0  0  0  0  0  0  0  0  0
   10.1263   -3.9920   25.8847 C   0  0  0  0  0  0  0  0  0  0  0  0
    9.6266   -3.7252   24.5017 N   0  0  0  0  0  0  0  0  0  0  0  0
    9.3666   -2.2993   24.2613 C   0  0  0  0  0  0  0  0  0  0  0  0
   10.6659   -1.5534   24.0348 C   0  0  0  0  0  0  0  0  0  0  0  0
   10.9521   -0.3874   24.7625 C   0  0  0  0  0  0  0  0  0  0  0  0
   12.0742    0.3160   24.5147 N   0  0  0  0  0  0  0  0  0  0  0  0
   12.9657   -0.0417   23.5737 C   0  0  0  0  0  0  0  0  0  0  0  0
   12.7430   -1.1820   22.8082 C   0  0  0  0  0  0  0  0  0  0  0  0
   13.7330   -1.5507   21.7284 C   0  0  0  0  0  0  0  0  0  0  0  0
   14.6969   -0.6107   21.6005 F   0  0  0  0  0  0  0  0  0  0  0  0
   13.1355   -1.6812   20.5188 F   0  0  0  0  0  0  0  0  0  0  0  0
   14.3514   -2.7256   21.9948 F   0  0  0  0  0  0  0  0  0  0  0  0
   11.5745   -1.9289   23.0326 C   0  0  0  0  0  0  0  0  0  0  0  0
    8.5559   -4.6552   24.0104 C   0  0  0  0  0  0  0  0  0  0  0  0
    8.1124   -5.6804   25.0376 C   0  0  0  0  0  0  0  0  0  0  0  0
  1  2  1  0
  2  3  1  0
  3  4  1  0
  4  5  1  0
  5  6  1  0
  5 17  1  0
  6  7  1  0
  7  8  2  0
  8  9  1  0
  9 10  2  0
 10 11  1  0
 11 12  1  0
 11 16  2  0
 12 13  1  0
 12 14  1  0
 12 15  1  0
 16  7  1  0
 17 18  1  0
 18  2  1  0
M  END
>  <TransFSScore>  (102)
0.108677

>  <SuCOS_Score>  (102)
0.578292

>  <FeatureStein>  (102)
0.554247

>  <SCORE.norm>  (102)
-0.692513

>  <Max_SuCOS_Score>  (102)
0.675326

>  <Cum_SuCOS_Score>  (102)
4.890392

>  <TransFSScore_50nM>  (102)
0.057221

>  <TransFSScore_1uM>  (102)
0.072131

>  <TransFSScore_10nM>  (102)
0.016316

>  <TransFSScore_200nM>  (102)
0.289039

>  <TETHERED ATOMS>  (102)
1,2,3,4,5,6,7,17,18

$$$$
OC1CCN(Cc2cncc(C(F)(F)F)c2)CC1
     RDKit          3D

 18 19  0  0  0  0  0  0  0  0999 V2000
    8.6311   -6.2124   27.3443 O   0  0  0  0  0  0  0  0  0  0  0  0
    9.1669   -6.3003   26.0280 C   0  0  0  0  0  0  0  0  0  0  0  0
   10.4385   -5.4896   26.0486 C   0  0  0  0  0  0  0  0  0  0  0  0
   10.0773   -4.0313   25.9464 C   0  0  0  0  0  0  0  0  0  0  0  0
    9.6173   -3.8040   24.5427 N   0  0  0  0  0  0  0  0  0  0  0  0
    9.3498   -2.3874   24.2594 C   0  0  0  0  0  0  0  0  0  0  0  0
   10.6461   -1.6386   24.0253 C   0  0  0  0  0  0  0  0  0  0  0  0
   10.9184   -0.4528   24.7259 C   0  0  0  0  0  0  0  0  0  0  0  0
   12.0380    0.2517   24.4700 N   0  0  0  0  0  0  0  0  0  0  0  0
   12.9398   -0.1235   23.5458 C   0  0  0  0  0  0  0  0  0  0  0  0
   12.7311   -1.2840   22.8073 C   0  0  0  0  0  0  0  0  0  0  0  0
   13.7327   -1.6729   21.7454 C   0  0  0  0  0  0  0  0  0  0  0  0
   14.6378   -0.6899   21.5368 F   0  0  0  0  0  0  0  0  0  0  0  0
   13.1345   -1.9278   20.5561 F   0  0  0  0  0  0  0  0  0  0  0  0
   14.4222   -2.7863   22.0899 F   0  0  0  0  0  0  0  0  0  0  0  0
   11.5657   -2.0329   23.0404 C   0  0  0  0  0  0  0  0  0  0  0  0
    8.5720   -4.7577   24.0424 C   0  0  0  0  0  0  0  0  0  0  0  0
    8.1081   -5.7624   25.0806 C   0  0  0  0  0  0  0  0  0  0  0  0
  1  2  1  0
  2  3  1  0
  3  4  1  0
  4  5  1  0
  5  6  1  0
  5 17  1  0
  6  7  1  0
  7  8  2  0
  8  9  1  0
  9 10  2  0
 10 11  1  0
 11 12  1  0
 11 16  2  0
 12 13  1  0
 12 14  1  0
 12 15  1  0
 16  7  1  0
 17 18  1  0
 18  2  1  0
M  END
>  <TransFSScore>  (103)
0.109992

>  <SuCOS_Score>  (103)
0.56303

>  <FeatureStein>  (103)
0.539303

>  <SCORE.norm>  (103)
-0.691696

>  <Max_SuCOS_Score>  (103)
0.667832

>  <Cum_SuCOS_Score>  (103)
4.820218

>  <TransFSScore_50nM>  (103)
0.0603

>  <TransFSScore_1uM>  (103)
0.080969

>  <TransFSScore_10nM>  (103)
0.017685

>  <TransFSScore_200nM>  (103)
0.281012

>  <TETHERED ATOMS>  (103)
1,2,3,4,5,6,7,17,18

$$$$
OC1CCN(Cc2cncc(C(F)(F)F)c2)CC1
     RDKit          3D

 18 19  0  0  0  0  0  0  0  0999 V2000
    8.5721   -6.1506   27.3155 O   0  0  0  0  0  0  0  0  0  0  0  0
    9.1379   -6.2509   26.0128 C   0  0  0  0  0  0  0  0  0  0  0  0
   10.4044   -5.4331   26.0524 C   0  0  0  0  0  0  0  0  0  0  0  0
   10.0380   -3.9781   25.9249 C   0  0  0  0  0  0  0  0  0  0  0  0
    9.6086   -3.7698   24.5086 N   0  0  0  0  0  0  0  0  0  0  0  0
    9.3401   -2.3581   24.2026 C   0  0  0  0  0  0  0  0  0  0  0  0
   10.6378   -1.6023   24.0008 C   0  0  0  0  0  0  0  0  0  0  0  0
   10.9025   -0.4358   24.7357 C   0  0  0  0  0  0  0  0  0  0  0  0
   12.0236    0.2762   24.5094 N   0  0  0  0  0  0  0  0  0  0  0  0
   12.9343   -0.0730   23.5836 C   0  0  0  0  0  0  0  0  0  0  0  0
   12.7335   -1.2132   22.8120 C   0  0  0  0  0  0  0  0  0  0  0  0
   13.7451   -1.5725   21.7492 C   0  0  0  0  0  0  0  0  0  0  0  0
   14.6864   -0.6103   21.6183 F   0  0  0  0  0  0  0  0  0  0  0  0
   13.1654   -1.7359   20.5349 F   0  0  0  0  0  0  0  0  0  0  0  0
   14.3899   -2.7272   22.0403 F   0  0  0  0  0  0  0  0  0  0  0  0
   11.5667   -1.9690   23.0141 C   0  0  0  0  0  0  0  0  0  0  0  0
    8.5799   -4.7350   23.9962 C   0  0  0  0  0  0  0  0  0  0  0  0
    8.0980   -5.7301   25.0355 C   0  0  0  0  0  0  0  0  0  0  0  0
  1  2  1  0
  2  3  1  0
  3  4  1  0
  4  5  1  0
  5  6  1  0
  5 17  1  0
  6  7  1  0
  7  8  2  0
  8  9  1  0
  9 10  2  0
 10 11  1  0
 11 12  1  0
 11 16  2  0
 12 13  1  0
 12 14  1  0
 12 15  1  0
 16  7  1  0
 17 18  1  0
 18  2  1  0
M  END
>  <TransFSScore>  (104)
0.107793

>  <SuCOS_Score>  (104)
0.573211

>  <FeatureStein>  (104)
0.553538

>  <SCORE.norm>  (104)
-0.690209

>  <Max_SuCOS_Score>  (104)
0.673853

>  <Cum_SuCOS_Score>  (104)
4.884047

>  <TransFSScore_50nM>  (104)
0.057549

>  <TransFSScore_1uM>  (104)
0.076164

>  <TransFSScore_10nM>  (104)
0.017221

>  <TransFSScore_200nM>  (104)
0.280239

>  <TETHERED ATOMS>  (104)
1,2,3,4,5,6,7,17,18

$$$$
OC1CCN(Cc2cncc(C(F)(F)F)c2)CC1
     RDKit          3D

 18 19  0  0  0  0  0  0  0  0999 V2000
    8.6987   -6.2392   27.2386 O   0  0  0  0  0  0  0  0  0  0  0  0
    9.2082   -6.2925   25.9102 C   0  0  0  0  0  0  0  0  0  0  0  0
   10.4813   -5.4842   25.9272 C   0  0  0  0  0  0  0  0  0  0  0  0
   10.1206   -4.0232   25.8711 C   0  0  0  0  0  0  0  0  0  0  0  0
    9.6333   -3.7580   24.4833 N   0  0  0  0  0  0  0  0  0  0  0  0
    9.3626   -2.3341   24.2432 C   0  0  0  0  0  0  0  0  0  0  0  0
   10.6550   -1.5814   24.0001 C   0  0  0  0  0  0  0  0  0  0  0  0
   10.9275   -0.3935   24.6971 C   0  0  0  0  0  0  0  0  0  0  0  0
   12.0431    0.3143   24.4334 N   0  0  0  0  0  0  0  0  0  0  0  0
   12.9408   -0.0594   23.5045 C   0  0  0  0  0  0  0  0  0  0  0  0
   12.7316   -1.2219   22.7692 C   0  0  0  0  0  0  0  0  0  0  0  0
   13.7282   -1.6093   21.7020 C   0  0  0  0  0  0  0  0  0  0  0  0
   14.6817   -0.6624   21.5500 F   0  0  0  0  0  0  0  0  0  0  0  0
   13.1350   -1.7801   20.4953 F   0  0  0  0  0  0  0  0  0  0  0  0
   14.3592   -2.7693   22.0023 F   0  0  0  0  0  0  0  0  0  0  0  0
   11.5700   -1.9743   23.0105 C   0  0  0  0  0  0  0  0  0  0  0  0
    8.5768   -4.6969   23.9785 C   0  0  0  0  0  0  0  0  0  0  0  0
    8.1319   -5.7285   24.9986 C   0  0  0  0  0  0  0  0  0  0  0  0
  1  2  1  0
  2  3  1  0
  3  4  1  0
  4  5  1  0
  5  6  1  0
  5 17  1  0
  6  7  1  0
  7  8  2  0
  8  9  1  0
  9 10  2  0
 10 11  1  0
 11 12  1  0
 11 16  2  0
 12 13  1  0
 12 14  1  0
 12 15  1  0
 16  7  1  0
 17 18  1  0
 18  2  1  0
M  END
>  <TransFSScore>  (105)
0.111602

>  <SuCOS_Score>  (105)
0.571017

>  <FeatureStein>  (105)
0.551133

>  <SCORE.norm>  (105)
-0.690143

>  <Max_SuCOS_Score>  (105)
0.684086

>  <Cum_SuCOS_Score>  (105)
4.900988

>  <TransFSScore_50nM>  (105)
0.059565

>  <TransFSScore_1uM>  (105)
0.074722

>  <TransFSScore_10nM>  (105)
0.017156

>  <TransFSScore_200nM>  (105)
0.294965

>  <TETHERED ATOMS>  (105)
1,2,3,4,5,6,7,17,18

$$$$
OC1CCN(Cc2cncc(C(F)(F)F)c2)CC1
     RDKit          3D

 18 19  0  0  0  0  0  0  0  0999 V2000
    8.6397   -6.1411   27.3353 O   0  0  0  0  0  0  0  0  0  0  0  0
    9.1683   -6.2280   26.0161 C   0  0  0  0  0  0  0  0  0  0  0  0
   10.4432   -5.4225   26.0320 C   0  0  0  0  0  0  0  0  0  0  0  0
   10.0873   -3.9625   25.9350 C   0  0  0  0  0  0  0  0  0  0  0  0
    9.6210   -3.7301   24.5343 N   0  0  0  0  0  0  0  0  0  0  0  0
    9.3576   -2.3119   24.2556 C   0  0  0  0  0  0  0  0  0  0  0  0
   10.6554   -1.5684   24.0130 C   0  0  0  0  0  0  0  0  0  0  0  0
   10.9275   -0.3721   24.6955 C   0  0  0  0  0  0  0  0  0  0  0  0
   12.0485    0.3270   24.4314 N   0  0  0  0  0  0  0  0  0  0  0  0
   12.9522   -0.0637   23.5154 C   0  0  0  0  0  0  0  0  0  0  0  0
   12.7439   -1.2355   22.7946 C   0  0  0  0  0  0  0  0  0  0  0  0
   13.7476   -1.6422   21.7415 C   0  0  0  0  0  0  0  0  0  0  0  0
   13.1493   -1.8649   20.5493 F   0  0  0  0  0  0  0  0  0  0  0  0
   14.4032   -2.7789   22.0811 F   0  0  0  0  0  0  0  0  0  0  0  0
   14.6860   -0.6855   21.5468 F   0  0  0  0  0  0  0  0  0  0  0  0
   11.5769   -1.9792   23.0367 C   0  0  0  0  0  0  0  0  0  0  0  0
    8.5693   -4.6785   24.0372 C   0  0  0  0  0  0  0  0  0  0  0  0
    8.1068   -5.6838   25.0755 C   0  0  0  0  0  0  0  0  0  0  0  0
  1  2  1  0
  2  3  1  0
  3  4  1  0
  4  5  1  0
  5  6  1  0
  5 17  1  0
  6  7  1  0
  7  8  2  0
  8  9  1  0
  9 10  2  0
 10 11  1  0
 11 12  1  0
 11 16  2  0
 12 13  1  0
 12 14  1  0
 12 15  1  0
 16  7  1  0
 17 18  1  0
 18  2  1  0
M  END
>  <TransFSScore>  (106)
0.108228

>  <SuCOS_Score>  (106)
0.58167

>  <FeatureStein>  (106)
0.565897

>  <SCORE.norm>  (106)
-0.686458

>  <Max_SuCOS_Score>  (106)
0.68153

>  <Cum_SuCOS_Score>  (106)
4.914251

>  <TransFSScore_50nM>  (106)
0.05763

>  <TransFSScore_1uM>  (106)
0.075314

>  <TransFSScore_10nM>  (106)
0.017038

>  <TransFSScore_200nM>  (106)
0.282929

>  <TETHERED ATOMS>  (106)
1,2,3,4,5,6,7,17,18

$$$$
OC1CCN(Cc2cncc(C(F)(F)F)c2)CC1
     RDKit          3D

 18 19  0  0  0  0  0  0  0  0999 V2000
    8.6744   -6.2187   27.2489 O   0  0  0  0  0  0  0  0  0  0  0  0
    9.1407   -6.2505   25.9040 C   0  0  0  0  0  0  0  0  0  0  0  0
   10.4373   -5.4803   25.9018 C   0  0  0  0  0  0  0  0  0  0  0  0
   10.1189   -4.0084   25.8958 C   0  0  0  0  0  0  0  0  0  0  0  0
    9.5971   -3.6913   24.5318 N   0  0  0  0  0  0  0  0  0  0  0  0
    9.3618   -2.2541   24.3381 C   0  0  0  0  0  0  0  0  0  0  0  0
   10.6702   -1.5300   24.0938 C   0  0  0  0  0  0  0  0  0  0  0  0
   10.9777   -0.3589   24.8045 C   0  0  0  0  0  0  0  0  0  0  0  0
   12.1081    0.3250   24.5406 N   0  0  0  0  0  0  0  0  0  0  0  0
   12.9883   -0.0576   23.5988 C   0  0  0  0  0  0  0  0  0  0  0  0
   12.7444   -1.2043   22.8495 C   0  0  0  0  0  0  0  0  0  0  0  0
   13.7220   -1.6011   21.7685 C   0  0  0  0  0  0  0  0  0  0  0  0
   13.0991   -1.7824   20.5819 F   0  0  0  0  0  0  0  0  0  0  0  0
   14.3630   -2.7576   22.0670 F   0  0  0  0  0  0  0  0  0  0  0  0
   14.6739   -0.6562   21.5814 F   0  0  0  0  0  0  0  0  0  0  0  0
   11.5668   -1.9314   23.0909 C   0  0  0  0  0  0  0  0  0  0  0  0
    8.4977   -4.5849   24.0362 C   0  0  0  0  0  0  0  0  0  0  0  0
    8.0539   -5.6306   25.0423 C   0  0  0  0  0  0  0  0  0  0  0  0
  1  2  1  0
  2  3  1  0
  3  4  1  0
  4  5  1  0
  5  6  1  0
  5 17  1  0
  6  7  1  0
  7  8  2  0
  8  9  1  0
  9 10  2  0
 10 11  1  0
 11 12  1  0
 11 16  2  0
 12 13  1  0
 12 14  1  0
 12 15  1  0
 16  7  1  0
 17 18  1  0
 18  2  1  0
M  END
>  <TransFSScore>  (107)
0.108828

>  <SuCOS_Score>  (107)
0.575811

>  <FeatureStein>  (107)
0.554232

>  <SCORE.norm>  (107)
-0.684448

>  <Max_SuCOS_Score>  (107)
0.666843

>  <Cum_SuCOS_Score>  (107)
4.862213

>  <TransFSScore_50nM>  (107)
0.064171

>  <TransFSScore_1uM>  (107)
0.073479

>  <TransFSScore_10nM>  (107)
0.015343

>  <TransFSScore_200nM>  (107)
0.282318

>  <TETHERED ATOMS>  (107)
1,2,3,4,5,6,7,17,18

$$$$
OC1CCN(Cc2cccc(C(F)(F)F)c2)CC1
     RDKit          3D

 18 19  0  0  0  0  0  0  0  0999 V2000
    9.7502   -7.5902   25.9768 O   0  0  0  0  0  0  0  0  0  0  0  0
    9.7315   -6.2304   25.7457 C   0  0  0  0  0  0  0  0  0  0  0  0
    8.4608   -5.5401   26.1188 C   0  0  0  0  0  0  0  0  0  0  0  0
    8.2646   -4.6219   24.9372 C   0  0  0  0  0  0  0  0  0  0  0  0
    9.3368   -3.6333   24.8877 N   0  0  0  0  0  0  0  0  0  0  0  0
    9.2450   -2.8436   23.6810 C   0  0  0  0  0  0  0  0  0  0  0  0
   10.3832   -1.8505   23.6269 C   0  0  0  0  0  0  0  0  0  0  0  0
   10.3396   -0.6734   24.3873 C   0  0  0  0  0  0  0  0  0  0  0  0
   11.3843    0.2494   24.3279 C   0  0  0  0  0  0  0  0  0  0  0  0
   12.4830    0.0112   23.5024 C   0  0  0  0  0  0  0  0  0  0  0  0
   12.5459   -1.1501   22.7191 C   0  0  0  0  0  0  0  0  0  0  0  0
   13.7424   -1.4253   21.8436 C   0  0  0  0  0  0  0  0  0  0  0  0
   14.6995   -0.4582   21.9231 F   0  0  0  0  0  0  0  0  0  0  0  0
   13.4128   -1.5176   20.5255 F   0  0  0  0  0  0  0  0  0  0  0  0
   14.3741   -2.5937   22.1515 F   0  0  0  0  0  0  0  0  0  0  0  0
   11.4916   -2.0749   22.7923 C   0  0  0  0  0  0  0  0  0  0  0  0
   10.7102   -4.0406   25.1820 C   0  0  0  0  0  0  0  0  0  0  0  0
   10.9313   -5.3649   25.9303 C   0  0  0  0  0  0  0  0  0  0  0  0
  1  2  1  0
  2  3  1  0
  3  4  1  0
  4  5  1  0
  5  6  1  0
  5 17  1  0
  6  7  1  0
  7  8  2  0
  8  9  1  0
  9 10  2  0
 10 11  1  0
 11 12  1  0
 11 16  2  0
 12 13  1  0
 12 14  1  0
 12 15  1  0
 16  7  1  0
 17 18  1  0
 18  2  1  0
M  END
>  <TransFSScore>  (108)
0.228689

>  <SuCOS_Score>  (108)
0.559823

>  <FeatureStein>  (108)
0.553507

>  <SCORE.norm>  (108)
-0.628196

>  <Max_SuCOS_Score>  (108)
0.559823

>  <Cum_SuCOS_Score>  (108)
5.051397

>  <TransFSScore_50nM>  (108)
0.029549

>  <TransFSScore_1uM>  (108)
0.09743

>  <TransFSScore_10nM>  (108)
0.052618

>  <TransFSScore_200nM>  (108)
0.73516

>  <TETHERED ATOMS>  (108)
1,2,3,4,5,6,7,17,18

$$$$
OC1CCN(Cc2cccc(C(F)(F)F)c2)CC1
     RDKit          3D

 18 19  0  0  0  0  0  0  0  0999 V2000
    8.7183   -6.2373   27.2305 O   0  0  0  0  0  0  0  0  0  0  0  0
    9.2780   -6.2615   25.9206 C   0  0  0  0  0  0  0  0  0  0  0  0
   10.5062   -5.3879   25.9743 C   0  0  0  0  0  0  0  0  0  0  0  0
   10.0788   -3.9453   25.8829 C   0  0  0  0  0  0  0  0  0  0  0  0
    9.6124   -3.7285   24.4811 N   0  0  0  0  0  0  0  0  0  0  0  0
    9.2728   -2.3199   24.2221 C   0  0  0  0  0  0  0  0  0  0  0  0
   10.5449   -1.5301   24.0465 C   0  0  0  0  0  0  0  0  0  0  0  0
   10.8117   -0.4202   24.8621 C   0  0  0  0  0  0  0  0  0  0  0  0
   11.9904    0.3099   24.7049 C   0  0  0  0  0  0  0  0  0  0  0  0
   12.9171   -0.0536   23.7287 C   0  0  0  0  0  0  0  0  0  0  0  0
   12.6750   -1.1523   22.8948 C   0  0  0  0  0  0  0  0  0  0  0  0
   13.6603   -1.5354   21.8119 C   0  0  0  0  0  0  0  0  0  0  0  0
   13.0969   -1.6581   20.5822 F   0  0  0  0  0  0  0  0  0  0  0  0
   14.6516   -0.6083   21.6838 F   0  0  0  0  0  0  0  0  0  0  0  0
   14.2814   -2.7141   22.0773 F   0  0  0  0  0  0  0  0  0  0  0  0
   11.4800   -1.8779   23.0546 C   0  0  0  0  0  0  0  0  0  0  0  0
    8.6475   -4.7288   23.9443 C   0  0  0  0  0  0  0  0  0  0  0  0
    8.2073   -5.7621   24.9655 C   0  0  0  0  0  0  0  0  0  0  0  0
  1  2  1  0
  2  3  1  0
  3  4  1  0
  4  5  1  0
  5  6  1  0
  5 17  1  0
  6  7  1  0
  7  8  2  0
  8  9  1  0
  9 10  2  0
 10 11  1  0
 11 12  1  0
 11 16  2  0
 12 13  1  0
 12 14  1  0
 12 15  1  0
 16  7  1  0
 17 18  1  0
 18  2  1  0
M  END
>  <TransFSScore>  (109)
0.124553

>  <SuCOS_Score>  (109)
0.599024

>  <FeatureStein>  (109)
0.536323

>  <SCORE.norm>  (109)
-0.619434

>  <Max_SuCOS_Score>  (109)
0.599024

>  <Cum_SuCOS_Score>  (109)
4.986985

>  <TransFSScore_50nM>  (109)
0.01065

>  <TransFSScore_1uM>  (109)
0.096369

>  <TransFSScore_10nM>  (109)
0.094534

>  <TransFSScore_200nM>  (109)
0.296661

>  <TETHERED ATOMS>  (109)
1,2,3,4,5,6,7,17,18

$$$$
OC1CCN(Cc2cccc(C(F)(F)F)c2)CC1
     RDKit          3D

 18 19  0  0  0  0  0  0  0  0999 V2000
    8.8795   -6.2256   26.9647 O   0  0  0  0  0  0  0  0  0  0  0  0
    9.3407   -6.2099   25.6169 C   0  0  0  0  0  0  0  0  0  0  0  0
   10.6013   -5.3821   25.6157 C   0  0  0  0  0  0  0  0  0  0  0  0
   10.2226   -3.9231   25.6177 C   0  0  0  0  0  0  0  0  0  0  0  0
    9.6635   -3.6277   24.2650 N   0  0  0  0  0  0  0  0  0  0  0  0
    9.3588   -2.1980   24.0919 C   0  0  0  0  0  0  0  0  0  0  0  0
   10.6477   -1.4375   23.9108 C   0  0  0  0  0  0  0  0  0  0  0  0
   10.9456   -0.3370   24.7284 C   0  0  0  0  0  0  0  0  0  0  0  0
   12.1399    0.3661   24.5660 C   0  0  0  0  0  0  0  0  0  0  0  0
   13.0516   -0.0153   23.5825 C   0  0  0  0  0  0  0  0  0  0  0  0
   12.7786   -1.1051   22.7465 C   0  0  0  0  0  0  0  0  0  0  0  0
   13.7477   -1.5072   21.6559 C   0  0  0  0  0  0  0  0  0  0  0  0
   13.1701   -1.6304   20.4329 F   0  0  0  0  0  0  0  0  0  0  0  0
   14.7490   -0.5934   21.5117 F   0  0  0  0  0  0  0  0  0  0  0  0
   14.3568   -2.6920   21.9222 F   0  0  0  0  0  0  0  0  0  0  0  0
   11.5681   -1.8033   22.9116 C   0  0  0  0  0  0  0  0  0  0  0  0
    8.6252   -4.5692   23.7598 C   0  0  0  0  0  0  0  0  0  0  0  0
    8.2225   -5.6318   24.7664 C   0  0  0  0  0  0  0  0  0  0  0  0
  1  2  1  0
  2  3  1  0
  3  4  1  0
  4  5  1  0
  5  6  1  0
  5 17  1  0
  6  7  1  0
  7  8  2  0
  8  9  1  0
  9 10  2  0
 10 11  1  0
 11 12  1  0
 11 16  2  0
 12 13  1  0
 12 14  1  0
 12 15  1  0
 16  7  1  0
 17 18  1  0
 18  2  1  0
M  END
>  <TransFSScore>  (110)
0.122204

>  <SuCOS_Score>  (110)
0.628741

>  <FeatureStein>  (110)
0.550384

>  <SCORE.norm>  (110)
-0.619073

>  <Max_SuCOS_Score>  (110)
0.628741

>  <Cum_SuCOS_Score>  (110)
5.172592

>  <TransFSScore_50nM>  (110)
0.010545

>  <TransFSScore_1uM>  (110)
0.096958

>  <TransFSScore_10nM>  (110)
0.091628

>  <TransFSScore_200nM>  (110)
0.289687

>  <TETHERED ATOMS>  (110)
1,2,3,4,5,6,7,17,18

$$$$
OC1CCN(Cc2cccc(C(F)(F)F)c2)CC1
     RDKit          3D

 18 19  0  0  0  0  0  0  0  0999 V2000
    8.7215   -6.2150   27.2028 O   0  0  0  0  0  0  0  0  0  0  0  0
    9.3140   -6.2420   25.9075 C   0  0  0  0  0  0  0  0  0  0  0  0
   10.5458   -5.3760   25.9927 C   0  0  0  0  0  0  0  0  0  0  0  0
   10.1297   -3.9308   25.8914 C   0  0  0  0  0  0  0  0  0  0  0  0
    9.7003   -3.7105   24.4784 N   0  0  0  0  0  0  0  0  0  0  0  0
    9.3759   -2.2997   24.2117 C   0  0  0  0  0  0  0  0  0  0  0  0
   10.6557   -1.5297   24.0068 C   0  0  0  0  0  0  0  0  0  0  0  0
   10.9576   -0.4233   24.8149 C   0  0  0  0  0  0  0  0  0  0  0  0
   12.1435    0.2886   24.6305 C   0  0  0  0  0  0  0  0  0  0  0  0
   13.0425   -0.0900   23.6344 C   0  0  0  0  0  0  0  0  0  0  0  0
   12.7651   -1.1856   22.8074 C   0  0  0  0  0  0  0  0  0  0  0  0
   13.7201   -1.5848   21.7034 C   0  0  0  0  0  0  0  0  0  0  0  0
   14.6808   -0.6580   21.4534 F   0  0  0  0  0  0  0  0  0  0  0  0
   14.3776   -2.7412   22.0017 F   0  0  0  0  0  0  0  0  0  0  0  0
   13.0788   -1.8108   20.5273 F   0  0  0  0  0  0  0  0  0  0  0  0
   11.5631   -1.8926   22.9948 C   0  0  0  0  0  0  0  0  0  0  0  0
    8.7431   -4.7046   23.9168 C   0  0  0  0  0  0  0  0  0  0  0  0
    8.2709   -5.7356   24.9259 C   0  0  0  0  0  0  0  0  0  0  0  0
  1  2  1  0
  2  3  1  0
  3  4  1  0
  4  5  1  0
  5  6  1  0
  5 17  1  0
  6  7  1  0
  7  8  2  0
  8  9  1  0
  9 10  2  0
 10 11  1  0
 11 12  1  0
 11 16  2  0
 12 13  1  0
 12 14  1  0
 12 15  1  0
 16  7  1  0
 17 18  1  0
 18  2  1  0
M  END
>  <TransFSScore>  (111)
0.126525

>  <SuCOS_Score>  (111)
0.621168

>  <FeatureStein>  (111)
0.529033

>  <SCORE.norm>  (111)
-0.619

>  <Max_SuCOS_Score>  (111)
0.621168

>  <Cum_SuCOS_Score>  (111)
5.002778

>  <TransFSScore_50nM>  (111)
0.010595

>  <TransFSScore_1uM>  (111)
0.096731

>  <TransFSScore_10nM>  (111)
0.099669

>  <TransFSScore_200nM>  (111)
0.299105

>  <TETHERED ATOMS>  (111)
1,2,3,4,5,6,7,17,18

$$$$
OC1CCN(Cc2cccc(C(F)(F)F)c2)CC1
     RDKit          3D

 18 19  0  0  0  0  0  0  0  0999 V2000
    8.5965   -6.1609   27.1958 O   0  0  0  0  0  0  0  0  0  0  0  0
    9.1776   -6.2042   25.8958 C   0  0  0  0  0  0  0  0  0  0  0  0
   10.4161   -5.3462   25.9623 C   0  0  0  0  0  0  0  0  0  0  0  0
   10.0094   -3.8991   25.8511 C   0  0  0  0  0  0  0  0  0  0  0  0
    9.5693   -3.6889   24.4399 N   0  0  0  0  0  0  0  0  0  0  0  0
    9.2527   -2.2784   24.1628 C   0  0  0  0  0  0  0  0  0  0  0  0
   10.5378   -1.5053   24.0096 C   0  0  0  0  0  0  0  0  0  0  0  0
   10.8148   -0.4126   24.8448 C   0  0  0  0  0  0  0  0  0  0  0  0
   12.0056    0.3019   24.7083 C   0  0  0  0  0  0  0  0  0  0  0  0
   12.9344   -0.0601   23.7336 C   0  0  0  0  0  0  0  0  0  0  0  0
   12.6824   -1.1416   22.8804 C   0  0  0  0  0  0  0  0  0  0  0  0
   13.6705   -1.5226   21.7992 C   0  0  0  0  0  0  0  0  0  0  0  0
   13.1087   -1.6505   20.5693 F   0  0  0  0  0  0  0  0  0  0  0  0
   14.6575   -0.5911   21.6700 F   0  0  0  0  0  0  0  0  0  0  0  0
   14.2968   -2.6978   22.0676 F   0  0  0  0  0  0  0  0  0  0  0  0
   11.4755   -1.8515   23.0195 C   0  0  0  0  0  0  0  0  0  0  0  0
    8.6004   -4.6813   23.8958 C   0  0  0  0  0  0  0  0  0  0  0  0
    8.1297   -5.6995   24.9185 C   0  0  0  0  0  0  0  0  0  0  0  0
  1  2  1  0
  2  3  1  0
  3  4  1  0
  4  5  1  0
  5  6  1  0
  5 17  1  0
  6  7  1  0
  7  8  2  0
  8  9  1  0
  9 10  2  0
 10 11  1  0
 11 12  1  0
 11 16  2  0
 12 13  1  0
 12 14  1  0
 12 15  1  0
 16  7  1  0
 17 18  1  0
 18  2  1  0
M  END
>  <TransFSScore>  (112)
0.120123

>  <SuCOS_Score>  (112)
0.607269

>  <FeatureStein>  (112)
0.556408

>  <SCORE.norm>  (112)
-0.618221

>  <Max_SuCOS_Score>  (112)
0.607269

>  <Cum_SuCOS_Score>  (112)
5.048114

>  <TransFSScore_50nM>  (112)
0.010229

>  <TransFSScore_1uM>  (112)
0.087893

>  <TransFSScore_10nM>  (112)
0.089193

>  <TransFSScore_200nM>  (112)
0.293176

>  <TETHERED ATOMS>  (112)
1,2,3,4,5,6,7,17,18

$$$$
OC1CCN(Cc2cccc(C(F)(F)F)c2)CC1
     RDKit          3D

 18 19  0  0  0  0  0  0  0  0999 V2000
    8.8573   -6.2285   26.9055 O   0  0  0  0  0  0  0  0  0  0  0  0
    9.2465   -6.1774   25.5360 C   0  0  0  0  0  0  0  0  0  0  0  0
   10.5354   -5.3953   25.4962 C   0  0  0  0  0  0  0  0  0  0  0  0
   10.2122   -3.9250   25.5720 C   0  0  0  0  0  0  0  0  0  0  0  0
    9.5934   -3.5582   24.2635 N   0  0  0  0  0  0  0  0  0  0  0  0
    9.3336   -2.1131   24.1595 C   0  0  0  0  0  0  0  0  0  0  0  0
   10.6416   -1.3897   23.9630 C   0  0  0  0  0  0  0  0  0  0  0  0
   10.9711   -0.2851   24.7628 C   0  0  0  0  0  0  0  0  0  0  0  0
   12.1831    0.3835   24.5861 C   0  0  0  0  0  0  0  0  0  0  0  0
   13.0811   -0.0369   23.6060 C   0  0  0  0  0  0  0  0  0  0  0  0
   12.7767   -1.1318   22.7876 C   0  0  0  0  0  0  0  0  0  0  0  0
   13.7313   -1.5760   21.7006 C   0  0  0  0  0  0  0  0  0  0  0  0
   14.7026   -0.6677   21.4248 F   0  0  0  0  0  0  0  0  0  0  0  0
   14.3756   -2.7291   22.0383 F   0  0  0  0  0  0  0  0  0  0  0  0
   13.0918   -1.8329   20.5299 F   0  0  0  0  0  0  0  0  0  0  0  0
   11.5488   -1.7951   22.9669 C   0  0  0  0  0  0  0  0  0  0  0  0
    8.4953   -4.4423   23.7817 C   0  0  0  0  0  0  0  0  0  0  0  0
    8.1071   -5.5278   24.7693 C   0  0  0  0  0  0  0  0  0  0  0  0
  1  2  1  0
  2  3  1  0
  3  4  1  0
  4  5  1  0
  5  6  1  0
  5 17  1  0
  6  7  1  0
  7  8  2  0
  8  9  1  0
  9 10  2  0
 10 11  1  0
 11 12  1  0
 11 16  2  0
 12 13  1  0
 12 14  1  0
 12 15  1  0
 16  7  1  0
 17 18  1  0
 18  2  1  0
M  END
>  <TransFSScore>  (113)
0.118971

>  <SuCOS_Score>  (113)
0.631174

>  <FeatureStein>  (113)
0.562521

>  <SCORE.norm>  (113)
-0.612947

>  <Max_SuCOS_Score>  (113)
0.631174

>  <Cum_SuCOS_Score>  (113)
5.1692

>  <TransFSScore_50nM>  (113)
0.009797

>  <TransFSScore_1uM>  (113)
0.09026

>  <TransFSScore_10nM>  (113)
0.087348

>  <TransFSScore_200nM>  (113)
0.288478

>  <TETHERED ATOMS>  (113)
1,2,3,4,5,6,7,17,18

$$$$
OC1CCN(Cc2cccc(C(F)(F)F)c2)CC1
     RDKit          3D

 18 19  0  0  0  0  0  0  0  0999 V2000
    8.6690   -6.1925   27.1418 O   0  0  0  0  0  0  0  0  0  0  0  0
    9.2244   -6.2189   25.8301 C   0  0  0  0  0  0  0  0  0  0  0  0
   10.4674   -5.3665   25.8849 C   0  0  0  0  0  0  0  0  0  0  0  0
   10.0642   -3.9164   25.8028 C   0  0  0  0  0  0  0  0  0  0  0  0
    9.5975   -3.6840   24.4036 N   0  0  0  0  0  0  0  0  0  0  0  0
    9.2810   -2.2684   24.1533 C   0  0  0  0  0  0  0  0  0  0  0  0
   10.5656   -1.5003   23.9731 C   0  0  0  0  0  0  0  0  0  0  0  0
   10.8386   -0.3745   24.7645 C   0  0  0  0  0  0  0  0  0  0  0  0
   12.0288    0.3357   24.6029 C   0  0  0  0  0  0  0  0  0  0  0  0
   12.9611   -0.0639   23.6463 C   0  0  0  0  0  0  0  0  0  0  0  0
   12.7131   -1.1792   22.8366 C   0  0  0  0  0  0  0  0  0  0  0  0
   13.7050   -1.6019   21.7745 C   0  0  0  0  0  0  0  0  0  0  0  0
   14.3637   -2.7517   22.0719 F   0  0  0  0  0  0  0  0  0  0  0  0
   13.0952   -1.8141   20.5738 F   0  0  0  0  0  0  0  0  0  0  0  0
   14.6526   -0.6544   21.5515 F   0  0  0  0  0  0  0  0  0  0  0  0
   11.5067   -1.8846   23.0005 C   0  0  0  0  0  0  0  0  0  0  0  0
    8.6142   -4.6648   23.8642 C   0  0  0  0  0  0  0  0  0  0  0  0
    8.1596   -5.6961   24.8810 C   0  0  0  0  0  0  0  0  0  0  0  0
  1  2  1  0
  2  3  1  0
  3  4  1  0
  4  5  1  0
  5  6  1  0
  5 17  1  0
  6  7  1  0
  7  8  2  0
  8  9  1  0
  9 10  2  0
 10 11  1  0
 11 12  1  0
 11 16  2  0
 12 13  1  0
 12 14  1  0
 12 15  1  0
 16  7  1  0
 17 18  1  0
 18  2  1  0
M  END
>  <TransFSScore>  (114)
0.119466

>  <SuCOS_Score>  (114)
0.614473

>  <FeatureStein>  (114)
0.557315

>  <SCORE.norm>  (114)
-0.609449

>  <Max_SuCOS_Score>  (114)
0.614473

>  <Cum_SuCOS_Score>  (114)
5.096085

>  <TransFSScore_50nM>  (114)
0.010823

>  <TransFSScore_1uM>  (114)
0.091159

>  <TransFSScore_10nM>  (114)
0.087878

>  <TransFSScore_200nM>  (114)
0.288004

>  <TETHERED ATOMS>  (114)
1,2,3,4,5,6,7,17,18

$$$$
O=S(=O)(c1cccs1)N1CCC(O)C(F)C1
     RDKit          3D

 16 17  0  0  0  0  0  0  0  0999 V2000
    9.1019   -0.9689   23.7367 O   0  0  0  0  0  0  0  0  0  0  0  0
    9.7302   -1.9468   22.8866 S   0  0  0  0  0  0  0  0  0  0  0  0
    9.2028   -2.3061   21.5939 O   0  0  0  0  0  0  0  0  0  0  0  0
   11.4111   -1.4692   22.6344 C   0  0  0  0  0  0  0  0  0  0  0  0
   12.3267   -1.7931   21.6498 C   0  0  0  0  0  0  0  0  0  0  0  0
   13.5915   -1.1709   21.8590 C   0  0  0  0  0  0  0  0  0  0  0  0
   13.6002   -0.3892   22.9925 C   0  0  0  0  0  0  0  0  0  0  0  0
   12.0908   -0.4097   23.7938 S   0  0  0  0  0  0  0  0  0  0  0  0
    9.5768   -3.4069   23.7144 N   0  0  0  0  0  0  0  0  0  0  0  0
   10.6162   -3.5840   24.7531 C   0  0  0  0  0  0  0  0  0  0  0  0
   10.4123   -4.9439   25.3987 C   0  0  0  0  0  0  0  0  0  0  0  0
    9.0781   -4.7870   26.0646 C   0  0  2  0  0  0  0  0  0  0  0  0
    9.0111   -5.2724   27.3544 O   0  0  0  0  0  0  0  0  0  0  0  0
    7.9398   -4.8276   25.0982 C   0  0  2  0  0  0  0  0  0  0  0  0
    7.9714   -6.0519   24.4889 F   0  0  0  0  0  0  0  0  0  0  0  0
    8.1534   -3.7750   23.9931 C   0  0  0  0  0  0  0  0  0  0  0  0
  1  2  2  0
  2  3  2  0
  2  4  1  0
  2  9  1  0
  4  5  2  0
  5  6  1  0
  6  7  2  0
  7  8  1  0
  8  4  1  0
  9 10  1  0
 10 11  1  0
 11 12  1  0
 12 13  1  1
 12 14  1  0
 14 15  1  6
 14 16  1  0
 16  9  1  0
M  END
>  <TransFSScore>  (115)
0.21274

>  <SuCOS_Score>  (115)
0.620051

>  <FeatureStein>  (115)
0.505038

>  <SCORE.norm>  (115)
-0.652555

>  <Max_SuCOS_Score>  (115)
0.620051

>  <Cum_SuCOS_Score>  (115)
4.903917

>  <TransFSScore_50nM>  (115)
0.068948

>  <TransFSScore_1uM>  (115)
0.294743

>  <TransFSScore_10nM>  (115)
0.348167

>  <TransFSScore_200nM>  (115)
0.139102

>  <TETHERED ATOMS>  (115)
13,12,11,10,9,16,14

$$$$
O=S(=O)(c1ccsc1)N1CCC(O)C(F)C1
     RDKit          3D

 16 17  0  0  0  0  0  0  0  0999 V2000
    8.9904   -0.6323   22.7114 O   0  0  0  0  0  0  0  0  0  0  0  0
    9.7722   -1.8419   22.8362 S   0  0  0  0  0  0  0  0  0  0  0  0
    9.7322   -2.8882   21.8383 O   0  0  0  0  0  0  0  0  0  0  0  0
   11.4092   -1.2824   22.8553 C   0  0  0  0  0  0  0  0  0  0  0  0
   11.8834   -0.2770   23.7508 C   0  0  0  0  0  0  0  0  0  0  0  0
   13.2236   -0.0180   23.5633 C   0  0  0  0  0  0  0  0  0  0  0  0
   13.8982   -0.9797   22.3164 S   0  0  0  0  0  0  0  0  0  0  0  0
   12.3973   -1.7459   22.0141 C   0  0  0  0  0  0  0  0  0  0  0  0
    9.4299   -2.5465   24.3439 N   0  0  0  0  0  0  0  0  0  0  0  0
   10.5349   -3.2723   25.0048 C   0  0  0  0  0  0  0  0  0  0  0  0
   10.3331   -4.7731   24.8942 C   0  0  0  0  0  0  0  0  0  0  0  0
    9.1100   -5.1903   25.6821 C   0  0  1  0  0  0  0  0  0  0  0  0
    9.4957   -5.3237   27.0548 O   0  0  0  0  0  0  0  0  0  0  0  0
    7.9645   -4.1908   25.5741 C   0  0  1  0  0  0  0  0  0  0  0  0
    7.9486   -3.4513   26.7336 F   0  0  0  0  0  0  0  0  0  0  0  0
    8.1012   -3.2163   24.4093 C   0  0  0  0  0  0  0  0  0  0  0  0
  1  2  2  0
  2  3  2  0
  2  4  1  0
  2  9  1  0
  4  5  1  0
  5  6  2  0
  6  7  1  0
  7  8  1  0
  8  4  2  0
  9 10  1  0
 10 11  1  0
 11 12  1  0
 12 13  1  1
 12 14  1  0
 14 15  1  1
 14 16  1  0
 16  9  1  0
M  END
>  <TransFSScore>  (116)
0.240077

>  <SuCOS_Score>  (116)
0.639725

>  <FeatureStein>  (116)
0.571039

>  <SCORE.norm>  (116)
-1.12954

>  <Max_SuCOS_Score>  (116)
0.639725

>  <Cum_SuCOS_Score>  (116)
5.209034

>  <TransFSScore_50nM>  (116)
0.03427

>  <TransFSScore_1uM>  (116)
0.183639

>  <TransFSScore_10nM>  (116)
0.079091

>  <TransFSScore_200nM>  (116)
0.66331

>  <TETHERED ATOMS>  (116)
13,12,11,10,9,16,14

$$$$
O=C(Cc1cccs1)N1CCC(O)C(F)C1
     RDKit          3D

 16 17  0  0  0  0  0  0  0  0999 V2000
    9.0454   -1.0339   25.0755 O   0  0  0  0  0  0  0  0  0  0  0  0
    9.6207   -1.6865   24.2091 C   0  0  0  0  0  0  0  0  0  0  0  0
   10.0166   -1.1325   22.8509 C   0  0  0  0  0  0  0  0  0  0  0  0
   11.5087   -1.0453   22.6987 C   0  0  0  0  0  0  0  0  0  0  0  0
   12.3257   -1.7551   21.8393 C   0  0  0  0  0  0  0  0  0  0  0  0
   13.7000   -1.4108   21.9891 C   0  0  0  0  0  0  0  0  0  0  0  0
   13.8884   -0.4553   22.9617 C   0  0  0  0  0  0  0  0  0  0  0  0
   12.4164    0.0201   23.6887 S   0  0  0  0  0  0  0  0  0  0  0  0
    9.8241   -3.0450   24.3104 N   0  0  0  0  0  0  0  0  0  0  0  0
   10.4380   -3.5979   25.5028 C   0  0  0  0  0  0  0  0  0  0  0  0
   10.8625   -5.0288   25.2585 C   0  0  0  0  0  0  0  0  0  0  0  0
    9.6448   -5.8907   24.9999 C   0  0  1  0  0  0  0  0  0  0  0  0
    9.0736   -6.2129   26.2736 O   0  0  0  0  0  0  0  0  0  0  0  0
    8.5700   -5.2045   24.1606 C   0  0  2  0  0  0  0  0  0  0  0  0
    8.1451   -6.0853   23.2049 F   0  0  0  0  0  0  0  0  0  0  0  0
    9.0363   -3.9340   23.4705 C   0  0  0  0  0  0  0  0  0  0  0  0
  1  2  2  0
  2  3  1  0
  2  9  1  0
  3  4  1  0
  4  5  2  0
  5  6  1  0
  6  7  2  0
  7  8  1  0
  8  4  1  0
  9 10  1  0
 10 11  1  0
 11 12  1  0
 12 13  1  1
 12 14  1  0
 14 15  1  6
 14 16  1  0
 16  9  1  0
M  END
>  <TransFSScore>  (117)
0.140589

>  <SuCOS_Score>  (117)
0.570338

>  <FeatureStein>  (117)
0.51406

>  <SCORE.norm>  (117)
-0.904166

>  <Max_SuCOS_Score>  (117)
0.570338

>  <Cum_SuCOS_Score>  (117)
4.955599

>  <TransFSScore_50nM>  (117)
0.001656

>  <TransFSScore_1uM>  (117)
0.430883

>  <TransFSScore_10nM>  (117)
0.033681

>  <TransFSScore_200nM>  (117)
0.096138

>  <TETHERED ATOMS>  (117)
13,12,11,10,9,2,3,16,14

$$$$
O=C(Cc1cccs1)N1CCC(O)C(F)C1
     RDKit          3D

 16 17  0  0  0  0  0  0  0  0999 V2000
    9.1157   -1.0254   25.0680 O   0  0  0  0  0  0  0  0  0  0  0  0
    9.6797   -1.6909   24.2039 C   0  0  0  0  0  0  0  0  0  0  0  0
   10.0718   -1.1526   22.8382 C   0  0  0  0  0  0  0  0  0  0  0  0
   11.5629   -1.0468   22.6888 C   0  0  0  0  0  0  0  0  0  0  0  0
   12.3884   -1.7348   21.8199 C   0  0  0  0  0  0  0  0  0  0  0  0
   13.7587   -1.3777   21.9761 C   0  0  0  0  0  0  0  0  0  0  0  0
   13.9358   -0.4346   22.9628 C   0  0  0  0  0  0  0  0  0  0  0  0
   12.4580    0.0138   23.6953 S   0  0  0  0  0  0  0  0  0  0  0  0
    9.8717   -3.0502   24.3163 N   0  0  0  0  0  0  0  0  0  0  0  0
   10.5604   -3.5906   25.4729 C   0  0  0  0  0  0  0  0  0  0  0  0
   10.9478   -5.0316   25.2264 C   0  0  0  0  0  0  0  0  0  0  0  0
    9.7037   -5.8802   25.0699 C   0  0  1  0  0  0  0  0  0  0  0  0
    9.2191   -6.1713   26.3863 O   0  0  0  0  0  0  0  0  0  0  0  0
    8.5818   -5.1936   24.2951 C   0  0  2  0  0  0  0  0  0  0  0  0
    8.0793   -6.0850   23.3881 F   0  0  0  0  0  0  0  0  0  0  0  0
    9.0152   -3.9425   23.5503 C   0  0  0  0  0  0  0  0  0  0  0  0
  1  2  2  0
  2  3  1  0
  2  9  1  0
  3  4  1  0
  4  5  2  0
  5  6  1  0
  6  7  2  0
  7  8  1  0
  8  4  1  0
  9 10  1  0
 10 11  1  0
 11 12  1  0
 12 13  1  1
 12 14  1  0
 14 15  1  6
 14 16  1  0
 16  9  1  0
M  END
>  <TransFSScore>  (118)
0.130652

>  <SuCOS_Score>  (118)
0.565729

>  <FeatureStein>  (118)
0.499651

>  <SCORE.norm>  (118)
-0.900881

>  <Max_SuCOS_Score>  (118)
0.565729

>  <Cum_SuCOS_Score>  (118)
4.919212

>  <TransFSScore_50nM>  (118)
0.001776

>  <TransFSScore_1uM>  (118)
0.405309

>  <TransFSScore_10nM>  (118)
0.030288

>  <TransFSScore_200nM>  (118)
0.085234

>  <TETHERED ATOMS>  (118)
13,12,11,10,9,2,3,16,14

$$$$
O=C(Cc1cccs1)N1CCC(O)C(F)C1
     RDKit          3D

 16 17  0  0  0  0  0  0  0  0999 V2000
    9.1226   -0.9930   25.2942 O   0  0  0  0  0  0  0  0  0  0  0  0
    9.6572   -1.6127   24.3789 C   0  0  0  0  0  0  0  0  0  0  0  0
   10.0006   -1.0057   23.0290 C   0  0  0  0  0  0  0  0  0  0  0  0
   11.4822   -1.0027   22.7808 C   0  0  0  0  0  0  0  0  0  0  0  0
   12.2054   -1.7842   21.8998 C   0  0  0  0  0  0  0  0  0  0  0  0
   13.6021   -1.5079   21.9502 C   0  0  0  0  0  0  0  0  0  0  0  0
   13.9007   -0.5302   22.8719 C   0  0  0  0  0  0  0  0  0  0  0  0
   12.5043    0.0473   23.6706 S   0  0  0  0  0  0  0  0  0  0  0  0
    9.8552   -2.9752   24.4164 N   0  0  0  0  0  0  0  0  0  0  0  0
   10.4954   -3.5820   25.5681 C   0  0  0  0  0  0  0  0  0  0  0  0
   10.9055   -5.0030   25.2517 C   0  0  0  0  0  0  0  0  0  0  0  0
    9.6769   -5.8472   24.9868 C   0  0  1  0  0  0  0  0  0  0  0  0
    9.1356   -6.2215   26.2594 O   0  0  0  0  0  0  0  0  0  0  0  0
    8.5855   -5.1204   24.2052 C   0  0  2  0  0  0  0  0  0  0  0  0
    8.1319   -5.9570   23.2232 F   0  0  0  0  0  0  0  0  0  0  0  0
    9.0417   -3.8234   23.5589 C   0  0  0  0  0  0  0  0  0  0  0  0
  1  2  2  0
  2  3  1  0
  2  9  1  0
  3  4  1  0
  4  5  2  0
  5  6  1  0
  6  7  2  0
  7  8  1  0
  8  4  1  0
  9 10  1  0
 10 11  1  0
 11 12  1  0
 12 13  1  1
 12 14  1  0
 14 15  1  6
 14 16  1  0
 16  9  1  0
M  END
>  <TransFSScore>  (119)
0.129286

>  <SuCOS_Score>  (119)
0.585109

>  <FeatureStein>  (119)
0.53468

>  <SCORE.norm>  (119)
-0.900073

>  <Max_SuCOS_Score>  (119)
0.585109

>  <Cum_SuCOS_Score>  (119)
5.009941

>  <TransFSScore_50nM>  (119)
0.001731

>  <TransFSScore_1uM>  (119)
0.404005

>  <TransFSScore_10nM>  (119)
0.031144

>  <TransFSScore_200nM>  (119)
0.080266

>  <TETHERED ATOMS>  (119)
13,12,11,10,9,2,3,16,14

$$$$
O=C(Cc1cccs1)N1CCC(O)C(F)C1
     RDKit          3D

 16 17  0  0  0  0  0  0  0  0999 V2000
    9.0691   -1.0650   24.9983 O   0  0  0  0  0  0  0  0  0  0  0  0
    9.6279   -1.7536   24.1492 C   0  0  0  0  0  0  0  0  0  0  0  0
   10.0406   -1.2436   22.7788 C   0  0  0  0  0  0  0  0  0  0  0  0
   11.5313   -1.0953   22.6657 C   0  0  0  0  0  0  0  0  0  0  0  0
   12.3953   -1.7497   21.8083 C   0  0  0  0  0  0  0  0  0  0  0  0
   13.7513   -1.3573   22.0008 C   0  0  0  0  0  0  0  0  0  0  0  0
   13.8795   -0.4221   23.0026 C   0  0  0  0  0  0  0  0  0  0  0  0
   12.3733   -0.0234   23.7054 S   0  0  0  0  0  0  0  0  0  0  0  0
    9.7947   -3.1143   24.2839 N   0  0  0  0  0  0  0  0  0  0  0  0
   10.5076   -3.6460   25.4299 C   0  0  0  0  0  0  0  0  0  0  0  0
   10.8567   -5.0998   25.2017 C   0  0  0  0  0  0  0  0  0  0  0  0
    9.5907   -5.9242   25.1012 C   0  0  1  0  0  0  0  0  0  0  0  0
    9.1414   -6.1781   26.4376 O   0  0  0  0  0  0  0  0  0  0  0  0
    8.4599   -5.2292   24.3471 C   0  0  2  0  0  0  0  0  0  0  0  0
    7.9107   -6.1276   23.4748 F   0  0  0  0  0  0  0  0  0  0  0  0
    8.8962   -4.0030   23.5634 C   0  0  0  0  0  0  0  0  0  0  0  0
  1  2  2  0
  2  3  1  0
  2  9  1  0
  3  4  1  0
  4  5  2  0
  5  6  1  0
  6  7  2  0
  7  8  1  0
  8  4  1  0
  9 10  1  0
 10 11  1  0
 11 12  1  0
 12 13  1  1
 12 14  1  0
 14 15  1  6
 14 16  1  0
 16  9  1  0
M  END
>  <TransFSScore>  (120)
0.134818

>  <SuCOS_Score>  (120)
0.567447

>  <FeatureStein>  (120)
0.503369

>  <SCORE.norm>  (120)
-0.897036

>  <Max_SuCOS_Score>  (120)
0.567447

>  <Cum_SuCOS_Score>  (120)
4.922081

>  <TransFSScore_50nM>  (120)
0.001877

>  <TransFSScore_1uM>  (120)
0.412749

>  <TransFSScore_10nM>  (120)
0.033802

>  <TransFSScore_200nM>  (120)
0.090842

>  <TETHERED ATOMS>  (120)
13,12,11,10,9,2,3,16,14

$$$$
O=C(Cc1cccs1)N1CCC(O)C(F)C1
     RDKit          3D

 16 17  0  0  0  0  0  0  0  0999 V2000
    9.2069   -1.3866   24.6475 O   0  0  0  0  0  0  0  0  0  0  0  0
    9.7640   -2.3247   24.0844 C   0  0  0  0  0  0  0  0  0  0  0  0
   10.4997   -2.2049   22.7604 C   0  0  0  0  0  0  0  0  0  0  0  0
   11.7915   -1.4523   22.9075 C   0  0  0  0  0  0  0  0  0  0  0  0
   12.0980   -0.4414   23.7986 C   0  0  0  0  0  0  0  0  0  0  0  0
   13.4270    0.0440   23.6322 C   0  0  0  0  0  0  0  0  0  0  0  0
   14.0894   -0.6066   22.6161 C   0  0  0  0  0  0  0  0  0  0  0  0
   13.1119   -1.7928   21.8686 S   0  0  0  0  0  0  0  0  0  0  0  0
    9.6421   -3.6289   24.5103 N   0  0  0  0  0  0  0  0  0  0  0  0
   10.3612   -4.0758   25.6882 C   0  0  0  0  0  0  0  0  0  0  0  0
   10.3483   -5.5860   25.7687 C   0  0  0  0  0  0  0  0  0  0  0  0
    8.9294   -6.0801   25.9557 C   0  0  1  0  0  0  0  0  0  0  0  0
    8.6107   -5.9419   27.3456 O   0  0  0  0  0  0  0  0  0  0  0  0
    7.8927   -5.2975   25.1537 C   0  0  2  0  0  0  0  0  0  0  0  0
    7.0511   -6.1920   24.5525 F   0  0  0  0  0  0  0  0  0  0  0  0
    8.4845   -4.3986   24.0814 C   0  0  0  0  0  0  0  0  0  0  0  0
  1  2  2  0
  2  3  1  0
  2  9  1  0
  3  4  1  0
  4  5  2  0
  5  6  1  0
  6  7  2  0
  7  8  1  0
  8  4  1  0
  9 10  1  0
 10 11  1  0
 11 12  1  0
 12 13  1  1
 12 14  1  0
 14 15  1  6
 14 16  1  0
 16  9  1  0
M  END
>  <TransFSScore>  (121)
0.143513

>  <SuCOS_Score>  (121)
0.596853

>  <FeatureStein>  (121)
0.509583

>  <SCORE.norm>  (121)
-0.813047

>  <Max_SuCOS_Score>  (121)
0.596853

>  <Cum_SuCOS_Score>  (121)
4.795796

>  <TransFSScore_50nM>  (121)
0.001513

>  <TransFSScore_1uM>  (121)
0.369593

>  <TransFSScore_10nM>  (121)
0.010286

>  <TransFSScore_200nM>  (121)
0.192658

>  <TETHERED ATOMS>  (121)
13,12,11,10,9,2,3,16,14

$$$$
O=C(Cc1cccs1)N1CCC(O)C(F)C1
     RDKit          3D

 16 17  0  0  0  0  0  0  0  0999 V2000
    8.7753   -1.1263   24.7266 O   0  0  0  0  0  0  0  0  0  0  0  0
    9.4948   -1.7972   23.9919 C   0  0  0  0  0  0  0  0  0  0  0  0
   10.1116   -1.2795   22.7035 C   0  0  0  0  0  0  0  0  0  0  0  0
   11.5537   -0.9016   22.8893 C   0  0  0  0  0  0  0  0  0  0  0  0
   12.0989   -0.0268   23.8098 C   0  0  0  0  0  0  0  0  0  0  0  0
   13.5125    0.0897   23.6762 C   0  0  0  0  0  0  0  0  0  0  0  0
   13.9995   -0.6938   22.6547 C   0  0  0  0  0  0  0  0  0  0  0  0
   12.7579   -1.5614   21.8629 S   0  0  0  0  0  0  0  0  0  0  0  0
    9.6888   -3.1492   24.1700 N   0  0  0  0  0  0  0  0  0  0  0  0
   10.3603   -3.6331   25.3613 C   0  0  0  0  0  0  0  0  0  0  0  0
   10.7557   -5.0826   25.1879 C   0  0  0  0  0  0  0  0  0  0  0  0
    9.5167   -5.9420   25.0508 C   0  0  1  0  0  0  0  0  0  0  0  0
    9.0117   -6.1737   26.3714 O   0  0  0  0  0  0  0  0  0  0  0  0
    8.4055   -5.2959   24.2273 C   0  0  2  0  0  0  0  0  0  0  0  0
    7.9202   -6.2300   23.3546 F   0  0  0  0  0  0  0  0  0  0  0  0
    8.8473   -4.0789   23.4325 C   0  0  0  0  0  0  0  0  0  0  0  0
  1  2  2  0
  2  3  1  0
  2  9  1  0
  3  4  1  0
  4  5  2  0
  5  6  1  0
  6  7  2  0
  7  8  1  0
  8  4  1  0
  9 10  1  0
 10 11  1  0
 11 12  1  0
 12 13  1  1
 12 14  1  0
 14 15  1  6
 14 16  1  0
 16  9  1  0
M  END
>  <TransFSScore>  (122)
0.167833

>  <SuCOS_Score>  (122)
0.582763

>  <FeatureStein>  (122)
0.525508

>  <SCORE.norm>  (122)
-0.798415

>  <Max_SuCOS_Score>  (122)
0.582763

>  <Cum_SuCOS_Score>  (122)
5.079375

>  <TransFSScore_50nM>  (122)
0.000686

>  <TransFSScore_1uM>  (122)
0.38988

>  <TransFSScore_10nM>  (122)
0.022423

>  <TransFSScore_200nM>  (122)
0.258345

>  <TETHERED ATOMS>  (122)
13,12,11,10,9,2,3,16,14

$$$$
O=C(Cc1cccs1)N1CCC(O)C(F)C1
     RDKit          3D

 16 17  0  0  0  0  0  0  0  0999 V2000
    8.6162   -1.4417   23.3951 O   0  0  0  0  0  0  0  0  0  0  0  0
    9.5693   -2.1935   23.2111 C   0  0  0  0  0  0  0  0  0  0  0  0
   10.5408   -2.0649   22.0500 C   0  0  0  0  0  0  0  0  0  0  0  0
   11.8156   -1.3860   22.4635 C   0  0  0  0  0  0  0  0  0  0  0  0
   12.0094   -0.4742   23.4838 C   0  0  0  0  0  0  0  0  0  0  0  0
   13.3619   -0.0345   23.5688 C   0  0  0  0  0  0  0  0  0  0  0  0
   14.1548   -0.6190   22.6075 C   0  0  0  0  0  0  0  0  0  0  0  0
   13.2710   -1.6888   21.6095 S   0  0  0  0  0  0  0  0  0  0  0  0
    9.7674   -3.3407   23.9472 N   0  0  0  0  0  0  0  0  0  0  0  0
   10.7841   -3.3703   24.9815 C   0  0  0  0  0  0  0  0  0  0  0  0
   11.0504   -4.7949   25.4142 C   0  0  0  0  0  0  0  0  0  0  0  0
    9.8099   -5.3787   26.0567 C   0  0  1  0  0  0  0  0  0  0  0  0
    9.7711   -4.9099   27.4099 O   0  0  0  0  0  0  0  0  0  0  0  0
    8.5084   -4.9632   25.3758 C   0  0  2  0  0  0  0  0  0  0  0  0
    7.7274   -6.0759   25.2283 F   0  0  0  0  0  0  0  0  0  0  0  0
    8.6969   -4.3237   24.0107 C   0  0  0  0  0  0  0  0  0  0  0  0
  1  2  2  0
  2  3  1  0
  2  9  1  0
  3  4  1  0
  4  5  2  0
  5  6  1  0
  6  7  2  0
  7  8  1  0
  8  4  1  0
  9 10  1  0
 10 11  1  0
 11 12  1  0
 12 13  1  1
 12 14  1  0
 14 15  1  6
 14 16  1  0
 16  9  1  0
M  END
>  <TransFSScore>  (123)
0.124082

>  <SuCOS_Score>  (123)
0.612412

>  <FeatureStein>  (123)
0.524928

>  <SCORE.norm>  (123)
-0.757431

>  <Max_SuCOS_Score>  (123)
0.612412

>  <Cum_SuCOS_Score>  (123)
4.821435

>  <TransFSScore_50nM>  (123)
0.000824

>  <TransFSScore_1uM>  (123)
0.350054

>  <TransFSScore_10nM>  (123)
0.016217

>  <TransFSScore_200nM>  (123)
0.129233

>  <TETHERED ATOMS>  (123)
13,12,11,10,9,2,3,16,14

$$$$
OC1CCN(CCc2ccsc2)CC1F
     RDKit          3D

 15 16  0  0  0  0  0  0  0  0999 V2000
    9.1032   -6.2848   26.5954 O   0  0  0  0  0  0  0  0  0  0  0  0
    9.7438   -5.9790   25.3535 C   0  0  2  0  0  0  0  0  0  0  0  0
   10.9138   -5.0922   25.7043 C   0  0  0  0  0  0  0  0  0  0  0  0
   10.4186   -3.6858   25.9202 C   0  0  0  0  0  0  0  0  0  0  0  0
   10.0367   -3.1590   24.5776 N   0  0  0  0  0  0  0  0  0  0  0  0
    9.6380   -1.7368   24.6176 C   0  0  0  0  0  0  0  0  0  0  0  0
    9.9267   -1.0900   23.2585 C   0  0  0  0  0  0  0  0  0  0  0  0
   11.3805   -1.0824   22.8705 C   0  0  0  0  0  0  0  0  0  0  0  0
   12.3926   -0.2899   23.5082 C   0  0  0  0  0  0  0  0  0  0  0  0
   13.6337   -0.4538   22.9338 C   0  0  0  0  0  0  0  0  0  0  0  0
   13.5974   -1.5611   21.6353 S   0  0  0  0  0  0  0  0  0  0  0  0
   11.9269   -1.8478   21.8557 C   0  0  0  0  0  0  0  0  0  0  0  0
    9.1480   -4.0408   23.7559 C   0  0  0  0  0  0  0  0  0  0  0  0
    8.7097   -5.3216   24.4500 C   0  0  1  0  0  0  0  0  0  0  0  0
    8.3480   -6.2219   23.4911 F   0  0  0  0  0  0  0  0  0  0  0  0
  2  1  1  1
  2  3  1  0
  3  4  1  0
  4  5  1  0
  5  6  1  0
  5 13  1  0
  6  7  1  0
  7  8  1  0
  8  9  1  0
  9 10  2  0
 10 11  1  0
 11 12  1  0
 12  8  2  0
 13 14  1  0
 14 15  1  6
 14  2  1  0
M  END
>  <TransFSScore>  (124)
0.094921

>  <SuCOS_Score>  (124)
0.645224

>  <FeatureStein>  (124)
0.571037

>  <SCORE.norm>  (124)
-0.749791

>  <Max_SuCOS_Score>  (124)
0.645224

>  <Cum_SuCOS_Score>  (124)
4.818551

>  <TransFSScore_50nM>  (124)
0.009487

>  <TransFSScore_1uM>  (124)
0.18737

>  <TransFSScore_10nM>  (124)
0.034191

>  <TransFSScore_200nM>  (124)
0.148638

>  <TETHERED ATOMS>  (124)
1,2,3,4,5,6,7,13,14

$$$$
OC1CCN(Cc2ccccc2)CC1F
     RDKit          3D

 15 16  0  0  0  0  0  0  0  0999 V2000
    9.6207   -7.3442   25.6627 O   0  0  0  0  0  0  0  0  0  0  0  0
    9.8099   -5.9971   25.4090 C   0  0  1  0  0  0  0  0  0  0  0  0
    8.5811   -5.1550   25.5267 C   0  0  0  0  0  0  0  0  0  0  0  0
    8.7008   -4.2772   24.3032 C   0  0  0  0  0  0  0  0  0  0  0  0
    9.8729   -3.4173   24.4135 N   0  0  0  0  0  0  0  0  0  0  0  0
   10.0906   -2.6725   23.1975 C   0  0  0  0  0  0  0  0  0  0  0  0
   11.1755   -1.6433   23.4084 C   0  0  0  0  0  0  0  0  0  0  0  0
   12.3015   -1.6043   22.5701 C   0  0  0  0  0  0  0  0  0  0  0  0
   13.2934   -0.6400   22.7543 C   0  0  0  0  0  0  0  0  0  0  0  0
   13.1696    0.3011   23.7743 C   0  0  0  0  0  0  0  0  0  0  0  0
   12.0545    0.2792   24.6101 C   0  0  0  0  0  0  0  0  0  0  0  0
   11.0614   -0.6852   24.4276 C   0  0  0  0  0  0  0  0  0  0  0  0
   11.1138   -3.9418   24.9939 C   0  0  0  0  0  0  0  0  0  0  0  0
   11.0571   -5.2650   25.7819 C   0  0  1  0  0  0  0  0  0  0  0  0
   11.0047   -4.9836   27.1183 F   0  0  0  0  0  0  0  0  0  0  0  0
  2  1  1  1
  2  3  1  0
  3  4  1  0
  4  5  1  0
  5  6  1  0
  5 13  1  0
  6  7  1  0
  7  8  2  0
  8  9  1  0
  9 10  2  0
 10 11  1  0
 11 12  2  0
 12  7  1  0
 13 14  1  0
 14 15  1  1
 14  2  1  0
M  END
>  <TransFSScore>  (125)
0.137839

>  <SuCOS_Score>  (125)
0.655372

>  <FeatureStein>  (125)
0.518101

>  <SCORE.norm>  (125)
-0.75791

>  <Max_SuCOS_Score>  (125)
0.655372

>  <Cum_SuCOS_Score>  (125)
4.663411

>  <TransFSScore_50nM>  (125)
0.017706

>  <TransFSScore_1uM>  (125)
0.237326

>  <TransFSScore_10nM>  (125)
0.012125

>  <TransFSScore_200nM>  (125)
0.284199

>  <TETHERED ATOMS>  (125)
1,2,3,4,5,6,7,13,14

$$$$
OC1CCN(Cc2cccnc2)CC1F
     RDKit          3D

 15 16  0  0  0  0  0  0  0  0999 V2000
    9.8170   -6.9844   25.4993 O   0  0  0  0  0  0  0  0  0  0  0  0
    9.7664   -5.6111   25.3848 C   0  0  1  0  0  0  0  0  0  0  0  0
    8.4063   -5.0113   25.2506 C   0  0  0  0  0  0  0  0  0  0  0  0
    8.5468   -4.0237   24.1126 C   0  0  0  0  0  0  0  0  0  0  0  0
    9.8282   -3.2479   24.2065 N   0  0  0  0  0  0  0  0  0  0  0  0
    9.9235   -2.0133   23.4159 C   0  0  0  0  0  0  0  0  0  0  0  0
   11.3009   -1.5168   23.1476 C   0  0  0  0  0  0  0  0  0  0  0  0
   12.0776   -2.0291   22.0998 C   0  0  0  0  0  0  0  0  0  0  0  0
   13.3687   -1.5484   21.8954 C   0  0  0  0  0  0  0  0  0  0  0  0
   13.8477   -0.5710   22.7492 C   0  0  0  0  0  0  0  0  0  0  0  0
   13.1261   -0.0568   23.7677 N   0  0  0  0  0  0  0  0  0  0  0  0
   11.8730   -0.5217   23.9357 C   0  0  0  0  0  0  0  0  0  0  0  0
   10.5525   -3.2565   25.5284 C   0  0  0  0  0  0  0  0  0  0  0  0
   10.7651   -4.6989   26.0424 C   0  0  1  0  0  0  0  0  0  0  0  0
   10.5176   -4.6994   27.3828 F   0  0  0  0  0  0  0  0  0  0  0  0
  2  1  1  1
  2  3  1  0
  3  4  1  0
  4  5  1  0
  5  6  1  0
  5 13  1  0
  6  7  1  0
  7  8  2  0
  8  9  1  0
  9 10  2  0
 10 11  1  0
 11 12  2  0
 12  7  1  0
 13 14  1  0
 14 15  1  1
 14  2  1  0
M  END
>  <TransFSScore>  (126)
0.138383

>  <SuCOS_Score>  (126)
0.642146

>  <FeatureStein>  (126)
0.500259

>  <SCORE.norm>  (126)
-0.921532

>  <Max_SuCOS_Score>  (126)
0.642146

>  <Cum_SuCOS_Score>  (126)
4.357729

>  <TransFSScore_50nM>  (126)
0.059242

>  <TransFSScore_1uM>  (126)
0.185016

>  <TransFSScore_10nM>  (126)
0.006503

>  <TransFSScore_200nM>  (126)
0.302771

>  <TETHERED ATOMS>  (126)
1,2,3,4,5,6,7,13,14

$$$$
OC1CCN(Cc2cccnc2)CC1F
     RDKit          3D

 15 16  0  0  0  0  0  0  0  0999 V2000
    9.7948   -6.9878   25.4953 O   0  0  0  0  0  0  0  0  0  0  0  0
    9.7462   -5.6155   25.3688 C   0  0  1  0  0  0  0  0  0  0  0  0
    8.3874   -5.0153   25.2248 C   0  0  0  0  0  0  0  0  0  0  0  0
    8.5330   -4.0377   24.0788 C   0  0  0  0  0  0  0  0  0  0  0  0
    9.8150   -3.2626   24.1705 N   0  0  0  0  0  0  0  0  0  0  0  0
    9.9145   -2.0350   23.3696 C   0  0  0  0  0  0  0  0  0  0  0  0
   11.2925   -1.5296   23.1215 C   0  0  0  0  0  0  0  0  0  0  0  0
   12.0912   -2.0436   22.0912 C   0  0  0  0  0  0  0  0  0  0  0  0
   13.3819   -1.5543   21.9056 C   0  0  0  0  0  0  0  0  0  0  0  0
   13.8383   -0.5666   22.7599 C   0  0  0  0  0  0  0  0  0  0  0  0
   13.0951   -0.0505   23.7618 N   0  0  0  0  0  0  0  0  0  0  0  0
   11.8430   -0.5240   23.9116 C   0  0  0  0  0  0  0  0  0  0  0  0
   10.5346   -3.2607   25.4949 C   0  0  0  0  0  0  0  0  0  0  0  0
   10.7437   -4.6989   26.0220 C   0  0  1  0  0  0  0  0  0  0  0  0
   10.4916   -4.6876   27.3615 F   0  0  0  0  0  0  0  0  0  0  0  0
  2  1  1  1
  2  3  1  0
  3  4  1  0
  4  5  1  0
  5  6  1  0
  5 13  1  0
  6  7  1  0
  7  8  2  0
  8  9  1  0
  9 10  2  0
 10 11  1  0
 11 12  2  0
 12  7  1  0
 13 14  1  0
 14 15  1  1
 14  2  1  0
M  END
>  <TransFSScore>  (127)
0.136711

>  <SuCOS_Score>  (127)
0.637814

>  <FeatureStein>  (127)
0.495101

>  <SCORE.norm>  (127)
-0.917617

>  <Max_SuCOS_Score>  (127)
0.637814

>  <Cum_SuCOS_Score>  (127)
4.359407

>  <TransFSScore_50nM>  (127)
0.057655

>  <TransFSScore_1uM>  (127)
0.18475

>  <TransFSScore_10nM>  (127)
0.006598

>  <TransFSScore_200nM>  (127)
0.297842

>  <TETHERED ATOMS>  (127)
1,2,3,4,5,6,7,13,14

$$$$
OC1CCN(Cc2cccnc2)CC1F
     RDKit          3D

 15 16  0  0  0  0  0  0  0  0999 V2000
    9.8233   -6.9972   25.5269 O   0  0  0  0  0  0  0  0  0  0  0  0
    9.7716   -5.6254   25.3959 C   0  0  1  0  0  0  0  0  0  0  0  0
    8.4109   -5.0284   25.2556 C   0  0  0  0  0  0  0  0  0  0  0  0
    8.5497   -4.0545   24.1057 C   0  0  0  0  0  0  0  0  0  0  0  0
    9.8306   -3.2766   24.1892 N   0  0  0  0  0  0  0  0  0  0  0  0
    9.9242   -2.0515   23.3837 C   0  0  0  0  0  0  0  0  0  0  0  0
   11.2981   -1.5265   23.1547 C   0  0  0  0  0  0  0  0  0  0  0  0
   12.1396   -2.0680   22.1738 C   0  0  0  0  0  0  0  0  0  0  0  0
   13.4247   -1.5582   22.0053 C   0  0  0  0  0  0  0  0  0  0  0  0
   13.8328   -0.5229   22.8271 C   0  0  0  0  0  0  0  0  0  0  0  0
   13.0476    0.0208   23.7812 N   0  0  0  0  0  0  0  0  0  0  0  0
   11.8018   -0.4740   23.9144 C   0  0  0  0  0  0  0  0  0  0  0  0
   10.5559   -3.2687   25.5105 C   0  0  0  0  0  0  0  0  0  0  0  0
   10.7701   -4.7046   26.0417 C   0  0  1  0  0  0  0  0  0  0  0  0
   10.5236   -4.6892   27.3821 F   0  0  0  0  0  0  0  0  0  0  0  0
  2  1  1  1
  2  3  1  0
  3  4  1  0
  4  5  1  0
  5  6  1  0
  5 13  1  0
  6  7  1  0
  7  8  2  0
  8  9  1  0
  9 10  2  0
 10 11  1  0
 11 12  2  0
 12  7  1  0
 13 14  1  0
 14 15  1  1
 14  2  1  0
M  END
>  <TransFSScore>  (128)
0.136867

>  <SuCOS_Score>  (128)
0.63836

>  <FeatureStein>  (128)
0.493359

>  <SCORE.norm>  (128)
-0.917516

>  <Max_SuCOS_Score>  (128)
0.63836

>  <Cum_SuCOS_Score>  (128)
4.369262

>  <TransFSScore_50nM>  (128)
0.057869

>  <TransFSScore_1uM>  (128)
0.186555

>  <TransFSScore_10nM>  (128)
0.007044

>  <TransFSScore_200nM>  (128)
0.295998

>  <TETHERED ATOMS>  (128)
1,2,3,4,5,6,7,13,14

$$$$
OC1CCN(Cc2cccnc2)CC1F
     RDKit          3D

 15 16  0  0  0  0  0  0  0  0999 V2000
    9.8191   -7.0926   25.6064 O   0  0  0  0  0  0  0  0  0  0  0  0
    9.7225   -5.7238   25.4696 C   0  0  1  0  0  0  0  0  0  0  0  0
    8.3446   -5.1742   25.3062 C   0  0  0  0  0  0  0  0  0  0  0  0
    8.4679   -4.1997   24.1549 C   0  0  0  0  0  0  0  0  0  0  0  0
    9.7199   -3.3781   24.2553 N   0  0  0  0  0  0  0  0  0  0  0  0
    9.7841   -2.1531   23.4468 C   0  0  0  0  0  0  0  0  0  0  0  0
   11.1389   -1.5643   23.2638 C   0  0  0  0  0  0  0  0  0  0  0  0
   11.5447   -0.4187   23.9613 C   0  0  0  0  0  0  0  0  0  0  0  0
   12.8153    0.1096   23.7463 C   0  0  0  0  0  0  0  0  0  0  0  0
   13.6428   -0.5219   22.8351 C   0  0  0  0  0  0  0  0  0  0  0  0
   13.2827   -1.6260   22.1467 N   0  0  0  0  0  0  0  0  0  0  0  0
   12.0570   -2.1317   22.3841 C   0  0  0  0  0  0  0  0  0  0  0  0
   10.4239   -3.3412   25.5876 C   0  0  0  0  0  0  0  0  0  0  0  0
   10.6788   -4.7673   26.1273 C   0  0  1  0  0  0  0  0  0  0  0  0
   10.4112   -4.7561   27.4637 F   0  0  0  0  0  0  0  0  0  0  0  0
  2  1  1  1
  2  3  1  0
  3  4  1  0
  4  5  1  0
  5  6  1  0
  5 13  1  0
  6  7  1  0
  7  8  2  0
  8  9  1  0
  9 10  2  0
 10 11  1  0
 11 12  2  0
 12  7  1  0
 13 14  1  0
 14 15  1  1
 14  2  1  0
M  END
>  <TransFSScore>  (129)
0.110816

>  <SuCOS_Score>  (129)
0.656084

>  <FeatureStein>  (129)
0.541144

>  <SCORE.norm>  (129)
-0.905701

>  <Max_SuCOS_Score>  (129)
0.656084

>  <Cum_SuCOS_Score>  (129)
4.51761

>  <TransFSScore_50nM>  (129)
0.041961

>  <TransFSScore_1uM>  (129)
0.210282

>  <TransFSScore_10nM>  (129)
0.003237

>  <TransFSScore_200nM>  (129)
0.187783

>  <TETHERED ATOMS>  (129)
1,2,3,4,5,6,7,13,14

$$$$
OC1CCN(Cc2cccnc2)CC1F
     RDKit          3D

 15 16  0  0  0  0  0  0  0  0999 V2000
    9.8509   -7.2506   25.7055 O   0  0  0  0  0  0  0  0  0  0  0  0
    9.7335   -5.8791   25.6218 C   0  0  1  0  0  0  0  0  0  0  0  0
    8.3429   -5.3378   25.5976 C   0  0  0  0  0  0  0  0  0  0  0  0
    8.3579   -4.3264   24.4720 C   0  0  0  0  0  0  0  0  0  0  0  0
    9.6084   -3.4965   24.4887 N   0  0  0  0  0  0  0  0  0  0  0  0
    9.5931   -2.2460   23.7175 C   0  0  0  0  0  0  0  0  0  0  0  0
   10.9212   -1.6286   23.4522 C   0  0  0  0  0  0  0  0  0  0  0  0
   11.3660   -0.5047   24.1612 C   0  0  0  0  0  0  0  0  0  0  0  0
   12.6085    0.0521   23.8682 C   0  0  0  0  0  0  0  0  0  0  0  0
   13.3692   -0.5297   22.8700 C   0  0  0  0  0  0  0  0  0  0  0  0
   12.9703   -1.6117   22.1683 N   0  0  0  0  0  0  0  0  0  0  0  0
   11.7740   -2.1462   22.4808 C   0  0  0  0  0  0  0  0  0  0  0  0
   10.4265   -3.4949   25.7546 C   0  0  0  0  0  0  0  0  0  0  0  0
   10.7374   -4.9348   26.2236 C   0  0  1  0  0  0  0  0  0  0  0  0
   10.5883   -4.9682   27.5781 F   0  0  0  0  0  0  0  0  0  0  0  0
  2  1  1  1
  2  3  1  0
  3  4  1  0
  4  5  1  0
  5  6  1  0
  5 13  1  0
  6  7  1  0
  7  8  2  0
  8  9  1  0
  9 10  2  0
 10 11  1  0
 11 12  2  0
 12  7  1  0
 13 14  1  0
 14 15  1  1
 14  2  1  0
M  END
>  <TransFSScore>  (130)
0.139379

>  <SuCOS_Score>  (130)
0.648588

>  <FeatureStein>  (130)
0.503425

>  <SCORE.norm>  (130)
-0.901176

>  <Max_SuCOS_Score>  (130)
0.648588

>  <Cum_SuCOS_Score>  (130)
4.455987

>  <TransFSScore_50nM>  (130)
0.032705

>  <TransFSScore_1uM>  (130)
0.219514

>  <TransFSScore_10nM>  (130)
0.002555

>  <TransFSScore_200nM>  (130)
0.302743

>  <TETHERED ATOMS>  (130)
1,2,3,4,5,6,7,13,14

$$$$
OC1CCN(Cc2cccnc2)CC1F
     RDKit          3D

 15 16  0  0  0  0  0  0  0  0999 V2000
    9.9696   -6.7713   25.5392 O   0  0  0  0  0  0  0  0  0  0  0  0
    9.8375   -5.4171   25.3151 C   0  0  1  0  0  0  0  0  0  0  0  0
    8.4910   -4.9517   24.8703 C   0  0  0  0  0  0  0  0  0  0  0  0
    8.7834   -4.0223   23.7123 C   0  0  0  0  0  0  0  0  0  0  0  0
    9.9551   -3.1295   24.0000 N   0  0  0  0  0  0  0  0  0  0  0  0
   10.1136   -1.9387   23.1542 C   0  0  0  0  0  0  0  0  0  0  0  0
   11.5078   -1.4491   22.9741 C   0  0  0  0  0  0  0  0  0  0  0  0
   12.3591   -1.9914   22.0021 C   0  0  0  0  0  0  0  0  0  0  0  0
   13.6625   -1.5158   21.8798 C   0  0  0  0  0  0  0  0  0  0  0  0
   14.0783   -0.5132   22.7375 C   0  0  0  0  0  0  0  0  0  0  0  0
   13.2840    0.0301   23.6842 N   0  0  0  0  0  0  0  0  0  0  0  0
   12.0213   -0.4307   23.7726 C   0  0  0  0  0  0  0  0  0  0  0  0
   10.3937   -2.9966   25.4359 C   0  0  0  0  0  0  0  0  0  0  0  0
   10.6080   -4.3820   26.0876 C   0  0  1  0  0  0  0  0  0  0  0  0
   10.0938   -4.3281   27.3488 F   0  0  0  0  0  0  0  0  0  0  0  0
  2  1  1  1
  2  3  1  0
  3  4  1  0
  4  5  1  0
  5  6  1  0
  5 13  1  0
  6  7  1  0
  7  8  2  0
  8  9  1  0
  9 10  2  0
 10 11  1  0
 11 12  2  0
 12  7  1  0
 13 14  1  0
 14 15  1  1
 14  2  1  0
M  END
>  <TransFSScore>  (131)
0.126019

>  <SuCOS_Score>  (131)
0.608201

>  <FeatureStein>  (131)
0.500719

>  <SCORE.norm>  (131)
-0.836548

>  <Max_SuCOS_Score>  (131)
0.608201

>  <Cum_SuCOS_Score>  (131)
4.339578

>  <TransFSScore_50nM>  (131)
0.04704

>  <TransFSScore_1uM>  (131)
0.174942

>  <TransFSScore_10nM>  (131)
0.006762

>  <TransFSScore_200nM>  (131)
0.275333

>  <TETHERED ATOMS>  (131)
1,2,3,4,5,6,7,13,14

$$$$
OC1CCN(Cc2cccnc2)CC1F
     RDKit          3D

 15 16  0  0  0  0  0  0  0  0999 V2000
    9.9286   -6.9675   25.6281 O   0  0  0  0  0  0  0  0  0  0  0  0
    9.7975   -5.6087   25.4330 C   0  0  1  0  0  0  0  0  0  0  0  0
    8.4305   -5.1228   25.0827 C   0  0  0  0  0  0  0  0  0  0  0  0
    8.6583   -4.1786   23.9222 C   0  0  0  0  0  0  0  0  0  0  0  0
    9.8559   -3.3023   24.1471 N   0  0  0  0  0  0  0  0  0  0  0  0
    9.9731   -2.1002   23.3106 C   0  0  0  0  0  0  0  0  0  0  0  0
   11.3329   -1.5017   23.2178 C   0  0  0  0  0  0  0  0  0  0  0  0
   11.6884   -0.3633   23.9535 C   0  0  0  0  0  0  0  0  0  0  0  0
   12.9665    0.1746   23.8230 C   0  0  0  0  0  0  0  0  0  0  0  0
   13.8516   -0.4403   22.9557 C   0  0  0  0  0  0  0  0  0  0  0  0
   13.5409   -1.5371   22.2325 N   0  0  0  0  0  0  0  0  0  0  0  0
   12.3061   -2.0525   22.3883 C   0  0  0  0  0  0  0  0  0  0  0  0
   10.3872   -3.1961   25.5536 C   0  0  0  0  0  0  0  0  0  0  0  0
   10.6275   -4.5936   26.1696 C   0  0  1  0  0  0  0  0  0  0  0  0
   10.1958   -4.5540   27.4619 F   0  0  0  0  0  0  0  0  0  0  0  0
  2  1  1  1
  2  3  1  0
  3  4  1  0
  4  5  1  0
  5  6  1  0
  5 13  1  0
  6  7  1  0
  7  8  2  0
  8  9  1  0
  9 10  2  0
 10 11  1  0
 11 12  2  0
 12  7  1  0
 13 14  1  0
 14 15  1  1
 14  2  1  0
M  END
>  <TransFSScore>  (132)
0.095205

>  <SuCOS_Score>  (132)
0.649623

>  <FeatureStein>  (132)
0.544851

>  <SCORE.norm>  (132)
-0.789843

>  <Max_SuCOS_Score>  (132)
0.649623

>  <Cum_SuCOS_Score>  (132)
4.487235

>  <TransFSScore_50nM>  (132)
0.037621

>  <TransFSScore_1uM>  (132)
0.190361

>  <TransFSScore_10nM>  (132)
0.003157

>  <TransFSScore_200nM>  (132)
0.14968

>  <TETHERED ATOMS>  (132)
1,2,3,4,5,6,7,13,14

$$$$
OC1CCN(CC2CC3CC3C2)CC1F
     RDKit          3D

 15 17  0  0  0  0  0  0  0  0999 V2000
    9.5016   -5.1134   28.2154 O   0  0  0  0  0  0  0  0  0  0  0  0
    9.4755   -4.9529   26.8462 C   0  0  1  0  0  0  0  0  0  0  0  0
   10.6566   -5.4771   26.0998 C   0  0  0  0  0  0  0  0  0  0  0  0
   11.0215   -4.3483   25.1628 C   0  0  0  0  0  0  0  0  0  0  0  0
    9.8133   -3.7487   24.5127 N   0  0  0  0  0  0  0  0  0  0  0  0
    9.9805   -2.9441   23.2941 C   0  0  0  0  0  0  0  0  0  0  0  0
   11.1438   -1.9606   23.3144 C   0  0  2  0  0  0  0  0  0  0  0  0
   10.9674   -0.8308   24.3584 C   0  0  0  0  0  0  0  0  0  0  0  0
   10.1663    0.2248   23.6517 C   0  0  1  0  0  0  0  0  0  0  0  0
   10.8294    1.2703   22.7987 C   0  0  0  0  0  0  0  0  0  0  0  0
   10.3033    0.0047   22.1802 C   0  0  1  0  0  0  0  0  0  0  0  0
   11.1950   -1.1819   21.9685 C   0  0  0  0  0  0  0  0  0  0  0  0
    8.5190   -4.5351   24.5941 C   0  0  0  0  0  0  0  0  0  0  0  0
    8.2054   -4.9653   26.0438 C   0  0  1  0  0  0  0  0  0  0  0  0
    7.7447   -6.2477   26.0050 F   0  0  0  0  0  0  0  0  0  0  0  0
  2  1  1  1
  2  3  1  0
  3  4  1  0
  4  5  1  0
  5  6  1  0
  5 13  1  0
  7  6  1  6
  7  8  1  0
  9  8  1  1
  9 10  1  0
 11 10  1  6
 11 12  1  0
 11  9  1  0
 12  7  1  0
 13 14  1  0
 14 15  1  6
 14  2  1  0
M  END
>  <TransFSScore>  (133)
0.173596

>  <SuCOS_Score>  (133)
0.529736

>  <FeatureStein>  (133)
0.514382

>  <SCORE.norm>  (133)
-0.741309

>  <Max_SuCOS_Score>  (133)
0.529736

>  <Cum_SuCOS_Score>  (133)
4.1645

>  <TransFSScore_50nM>  (133)
0.023604

>  <TransFSScore_1uM>  (133)
0.170545

>  <TransFSScore_10nM>  (133)
0.01994

>  <TransFSScore_200nM>  (133)
0.480295

>  <TETHERED ATOMS>  (133)
1,2,3,4,5,6,7,13,14

$$$$
OC1CCN(CC2CC3CC3C2)CC1F
     RDKit          3D

 15 17  0  0  0  0  0  0  0  0999 V2000
    9.6204   -6.7937   26.0534 O   0  0  0  0  0  0  0  0  0  0  0  0
    9.6675   -5.6639   25.2548 C   0  0  1  0  0  0  0  0  0  0  0  0
   11.0134   -5.0162   25.1794 C   0  0  0  0  0  0  0  0  0  0  0  0
   10.6497   -3.5559   25.2789 C   0  0  0  0  0  0  0  0  0  0  0  0
    9.8817   -3.1487   24.1131 N   0  0  0  0  0  0  0  0  0  0  0  0
    9.3764   -1.8034   24.2454 C   0  0  0  0  0  0  0  0  0  0  0  0
   10.2471   -0.8362   23.4414 C   0  0  0  0  0  0  0  0  0  0  0  0
   11.7119   -0.6769   23.9682 C   0  0  0  0  0  0  0  0  0  0  0  0
   12.4898   -1.4871   22.9910 C   0  0  2  0  0  0  0  0  0  0  0  0
   13.2585   -1.3932   21.7287 C   0  0  0  0  0  0  0  0  0  0  0  0
   11.8394   -0.9513   21.6823 C   0  0  1  0  0  0  0  0  0  0  0  0
   10.4435   -1.3709   21.9801 C   0  0  0  0  0  0  0  0  0  0  0  0
    8.8910   -4.0672   23.5386 C   0  0  0  0  0  0  0  0  0  0  0  0
    8.9096   -5.5467   23.9687 C   0  0  2  0  0  0  0  0  0  0  0  0
    7.6252   -5.9687   24.1418 F   0  0  0  0  0  0  0  0  0  0  0  0
  2  1  1  6
  2  3  1  0
  3  4  1  0
  4  5  1  0
  5  6  1  0
  5 13  1  0
  7  6  1  0
  7  8  1  0
  9  8  1  1
  9 10  1  0
 11 10  1  6
 11 12  1  0
 11  9  1  0
 12  7  1  0
 13 14  1  0
 14 15  1  1
 14  2  1  0
M  END
>  <TransFSScore>  (134)
0.093798

>  <SuCOS_Score>  (134)
0.537772

>  <FeatureStein>  (134)
0.491517

>  <SCORE.norm>  (134)
-0.6439

>  <Max_SuCOS_Score>  (134)
0.537772

>  <Cum_SuCOS_Score>  (134)
4.610084

>  <TransFSScore_50nM>  (134)
0.006897

>  <TransFSScore_1uM>  (134)
0.126543

>  <TransFSScore_10nM>  (134)
0.027508

>  <TransFSScore_200nM>  (134)
0.214246

>  <TETHERED ATOMS>  (134)
1,2,3,4,5,6,7,13,14

$$$$
OC1CCN(Cc2cncs2)CC1F
     RDKit          3D

 14 15  0  0  0  0  0  0  0  0999 V2000
    9.8024   -6.6560   25.1157 O   0  0  0  0  0  0  0  0  0  0  0  0
    9.8008   -5.2808   25.0157 C   0  0  1  0  0  0  0  0  0  0  0  0
    8.4766   -4.6401   24.7639 C   0  0  0  0  0  0  0  0  0  0  0  0
    8.7507   -3.6418   23.6602 C   0  0  0  0  0  0  0  0  0  0  0  0
   10.0371   -2.9050   23.8837 N   0  0  0  0  0  0  0  0  0  0  0  0
   10.2383   -1.6555   23.1351 C   0  0  0  0  0  0  0  0  0  0  0  0
   11.6227   -1.1393   23.1000 C   0  0  0  0  0  0  0  0  0  0  0  0
   12.2180   -0.1752   23.8913 C   0  0  0  0  0  0  0  0  0  0  0  0
   13.5388    0.0921   23.6092 N   0  0  0  0  0  0  0  0  0  0  0  0
   13.9625   -0.7010   22.6510 C   0  0  0  0  0  0  0  0  0  0  0  0
   12.7928   -1.7804   22.0117 S   0  0  0  0  0  0  0  0  0  0  0  0
   10.6371   -2.9539   25.2663 C   0  0  0  0  0  0  0  0  0  0  0  0
   10.7579   -4.4067   25.7780 C   0  0  1  0  0  0  0  0  0  0  0  0
   10.3835   -4.4147   27.0885 F   0  0  0  0  0  0  0  0  0  0  0  0
  2  1  1  1
  2  3  1  0
  3  4  1  0
  4  5  1  0
  5  6  1  0
  5 12  1  0
  6  7  1  0
  7  8  2  0
  8  9  1  0
  9 10  2  0
 10 11  1  0
 11  7  1  0
 12 13  1  0
 13 14  1  1
 13  2  1  0
M  END
>  <TransFSScore>  (135)
0.188525

>  <SuCOS_Score>  (135)
0.587426

>  <FeatureStein>  (135)
0.494114

>  <SCORE.norm>  (135)
-1.00058

>  <Max_SuCOS_Score>  (135)
0.587426

>  <Cum_SuCOS_Score>  (135)
4.372757

>  <TransFSScore_50nM>  (135)
0.054022

>  <TransFSScore_1uM>  (135)
0.234771

>  <TransFSScore_10nM>  (135)
0.045834

>  <TransFSScore_200nM>  (135)
0.419473

>  <TETHERED ATOMS>  (135)
1,2,3,4,5,6,7,12,13

$$$$
OC1CCN(Cc2cncs2)CC1F
     RDKit          3D

 14 15  0  0  0  0  0  0  0  0999 V2000
    9.8704   -6.6937   25.3094 O   0  0  0  0  0  0  0  0  0  0  0  0
    9.8257   -5.3249   25.1497 C   0  0  1  0  0  0  0  0  0  0  0  0
    8.4883   -4.7415   24.8366 C   0  0  0  0  0  0  0  0  0  0  0  0
    8.7586   -3.7823   23.6978 C   0  0  0  0  0  0  0  0  0  0  0  0
   10.0134   -2.9928   23.9218 N   0  0  0  0  0  0  0  0  0  0  0  0
   10.1931   -1.7703   23.1250 C   0  0  0  0  0  0  0  0  0  0  0  0
   11.5640   -1.2195   23.0870 C   0  0  0  0  0  0  0  0  0  0  0  0
   12.1260   -0.2158   23.8530 C   0  0  0  0  0  0  0  0  0  0  0  0
   13.4423    0.0768   23.5755 N   0  0  0  0  0  0  0  0  0  0  0  0
   13.8964   -0.7350   22.6473 C   0  0  0  0  0  0  0  0  0  0  0  0
   12.7618   -1.8642   22.0313 S   0  0  0  0  0  0  0  0  0  0  0  0
   10.5772   -2.9621   25.3200 C   0  0  0  0  0  0  0  0  0  0  0  0
   10.7324   -4.3868   25.8974 C   0  0  1  0  0  0  0  0  0  0  0  0
   10.3233   -4.3518   27.1970 F   0  0  0  0  0  0  0  0  0  0  0  0
  2  1  1  1
  2  3  1  0
  3  4  1  0
  4  5  1  0
  5  6  1  0
  5 12  1  0
  6  7  1  0
  7  8  2  0
  8  9  1  0
  9 10  2  0
 10 11  1  0
 11  7  1  0
 12 13  1  0
 13 14  1  1
 13  2  1  0
M  END
>  <TransFSScore>  (136)
0.191955

>  <SuCOS_Score>  (136)
0.604955

>  <FeatureStein>  (136)
0.505458

>  <SCORE.norm>  (136)
-0.9958

>  <Max_SuCOS_Score>  (136)
0.604955

>  <Cum_SuCOS_Score>  (136)
4.386321

>  <TransFSScore_50nM>  (136)
0.054425

>  <TransFSScore_1uM>  (136)
0.243749

>  <TransFSScore_10nM>  (136)
0.043269

>  <TransFSScore_200nM>  (136)
0.426377

>  <TETHERED ATOMS>  (136)
1,2,3,4,5,6,7,12,13

$$$$
OC1CCN(Cc2cncs2)CC1F
     RDKit          3D

 14 15  0  0  0  0  0  0  0  0999 V2000
    9.8391   -7.0497   25.6123 O   0  0  0  0  0  0  0  0  0  0  0  0
    9.7491   -5.6856   25.4326 C   0  0  1  0  0  0  0  0  0  0  0  0
    8.3732   -5.1324   25.2655 C   0  0  0  0  0  0  0  0  0  0  0  0
    8.4910   -4.1933   24.0848 C   0  0  0  0  0  0  0  0  0  0  0  0
    9.7474   -3.3774   24.1465 N   0  0  0  0  0  0  0  0  0  0  0  0
    9.8095   -2.1692   23.3109 C   0  0  0  0  0  0  0  0  0  0  0  0
   11.1538   -1.5872   23.1156 C   0  0  0  0  0  0  0  0  0  0  0  0
   12.0678   -1.8144   22.1041 C   0  0  0  0  0  0  0  0  0  0  0  0
   13.2492   -1.1145   22.2028 N   0  0  0  0  0  0  0  0  0  0  0  0
   13.2131   -0.3182   23.2476 C   0  0  0  0  0  0  0  0  0  0  0  0
   11.7801   -0.3939   24.1872 S   0  0  0  0  0  0  0  0  0  0  0  0
   10.4682   -3.3069   25.4692 C   0  0  0  0  0  0  0  0  0  0  0  0
   10.7173   -4.7160   26.0519 C   0  0  1  0  0  0  0  0  0  0  0  0
   10.4605   -4.6603   27.3893 F   0  0  0  0  0  0  0  0  0  0  0  0
  2  1  1  1
  2  3  1  0
  3  4  1  0
  4  5  1  0
  5  6  1  0
  5 12  1  0
  6  7  1  0
  7  8  2  0
  8  9  1  0
  9 10  2  0
 10 11  1  0
 11  7  1  0
 12 13  1  0
 13 14  1  1
 13  2  1  0
M  END
>  <TransFSScore>  (137)
0.1156

>  <SuCOS_Score>  (137)
0.629003

>  <FeatureStein>  (137)
0.511795

>  <SCORE.norm>  (137)
-0.953673

>  <Max_SuCOS_Score>  (137)
0.629003

>  <Cum_SuCOS_Score>  (137)
4.389083

>  <TransFSScore_50nM>  (137)
0.05486

>  <TransFSScore_1uM>  (137)
0.18461

>  <TransFSScore_10nM>  (137)
0.055549

>  <TransFSScore_200nM>  (137)
0.167379

>  <TETHERED ATOMS>  (137)
1,2,3,4,5,6,7,12,13

$$$$
OC1CCN(Cc2cncs2)CC1F
     RDKit          3D

 14 15  0  0  0  0  0  0  0  0999 V2000
    9.8441   -7.0096   25.6217 O   0  0  0  0  0  0  0  0  0  0  0  0
    9.7809   -5.6481   25.4128 C   0  0  1  0  0  0  0  0  0  0  0  0
    8.4151   -5.0694   25.2491 C   0  0  0  0  0  0  0  0  0  0  0  0
    8.5389   -4.1591   24.0466 C   0  0  0  0  0  0  0  0  0  0  0  0
    9.8129   -3.3691   24.0760 N   0  0  0  0  0  0  0  0  0  0  0  0
    9.8907   -2.1812   23.2131 C   0  0  0  0  0  0  0  0  0  0  0  0
   11.2384   -1.6028   23.0302 C   0  0  0  0  0  0  0  0  0  0  0  0
   12.1775   -1.8635   22.0503 C   0  0  0  0  0  0  0  0  0  0  0  0
   13.3547   -1.1572   22.1529 N   0  0  0  0  0  0  0  0  0  0  0  0
   13.2913   -0.3241   23.1672 C   0  0  0  0  0  0  0  0  0  0  0  0
   11.8357   -0.3701   24.0734 S   0  0  0  0  0  0  0  0  0  0  0  0
   10.5506   -3.2851   25.3885 C   0  0  0  0  0  0  0  0  0  0  0  0
   10.7767   -4.6862   25.9995 C   0  0  1  0  0  0  0  0  0  0  0  0
   10.5369   -4.5956   27.3381 F   0  0  0  0  0  0  0  0  0  0  0  0
  2  1  1  1
  2  3  1  0
  3  4  1  0
  4  5  1  0
  5  6  1  0
  5 12  1  0
  6  7  1  0
  7  8  2  0
  8  9  1  0
  9 10  2  0
 10 11  1  0
 11  7  1  0
 12 13  1  0
 13 14  1  1
 13  2  1  0
M  END
>  <TransFSScore>  (138)
0.110584

>  <SuCOS_Score>  (138)
0.609746

>  <FeatureStein>  (138)
0.49631

>  <SCORE.norm>  (138)
-0.947113

>  <Max_SuCOS_Score>  (138)
0.609746

>  <Cum_SuCOS_Score>  (138)
4.351452

>  <TransFSScore_50nM>  (138)
0.054817

>  <TransFSScore_1uM>  (138)
0.185673

>  <TransFSScore_10nM>  (138)
0.051638

>  <TransFSScore_200nM>  (138)
0.150207

>  <TETHERED ATOMS>  (138)
1,2,3,4,5,6,7,12,13

$$$$
OC1CCN(Cc2cncs2)CC1F
     RDKit          3D

 14 15  0  0  0  0  0  0  0  0999 V2000
    9.8444   -7.0584   25.6170 O   0  0  0  0  0  0  0  0  0  0  0  0
    9.7378   -5.6939   25.4499 C   0  0  1  0  0  0  0  0  0  0  0  0
    8.3559   -5.1571   25.2793 C   0  0  0  0  0  0  0  0  0  0  0  0
    8.4688   -4.2050   24.1085 C   0  0  0  0  0  0  0  0  0  0  0  0
    9.7140   -3.3735   24.1861 N   0  0  0  0  0  0  0  0  0  0  0  0
    9.7656   -2.1566   23.3626 C   0  0  0  0  0  0  0  0  0  0  0  0
   11.1153   -1.6263   23.0773 C   0  0  0  0  0  0  0  0  0  0  0  0
   11.9660   -1.9161   22.0274 C   0  0  0  0  0  0  0  0  0  0  0  0
   13.1725   -1.2532   22.0402 N   0  0  0  0  0  0  0  0  0  0  0  0
   13.2177   -0.4231   23.0580 C   0  0  0  0  0  0  0  0  0  0  0  0
   11.8355   -0.4209   24.0737 S   0  0  0  0  0  0  0  0  0  0  0  0
   10.4256   -3.3066   25.5139 C   0  0  0  0  0  0  0  0  0  0  0  0
   10.6894   -4.7179   26.0847 C   0  0  1  0  0  0  0  0  0  0  0  0
   10.4235   -4.6785   27.4209 F   0  0  0  0  0  0  0  0  0  0  0  0
  2  1  1  1
  2  3  1  0
  3  4  1  0
  4  5  1  0
  5  6  1  0
  5 12  1  0
  6  7  1  0
  7  8  2  0
  8  9  1  0
  9 10  2  0
 10 11  1  0
 11  7  1  0
 12 13  1  0
 13 14  1  1
 13  2  1  0
M  END
>  <TransFSScore>  (139)
0.118279

>  <SuCOS_Score>  (139)
0.620746

>  <FeatureStein>  (139)
0.519844

>  <SCORE.norm>  (139)
-0.946442

>  <Max_SuCOS_Score>  (139)
0.620746

>  <Cum_SuCOS_Score>  (139)
4.342543

>  <TransFSScore_50nM>  (139)
0.043365

>  <TransFSScore_1uM>  (139)
0.179853

>  <TransFSScore_10nM>  (139)
0.063343

>  <TransFSScore_200nM>  (139)
0.186556

>  <TETHERED ATOMS>  (139)
1,2,3,4,5,6,7,12,13

$$$$
OC1CCN(Cc2cncs2)CC1F
     RDKit          3D

 14 15  0  0  0  0  0  0  0  0999 V2000
    9.8398   -7.0389   25.6257 O   0  0  0  0  0  0  0  0  0  0  0  0
    9.7459   -5.6758   25.4407 C   0  0  1  0  0  0  0  0  0  0  0  0
    8.3675   -5.1253   25.2859 C   0  0  0  0  0  0  0  0  0  0  0  0
    8.4714   -4.1913   24.0997 C   0  0  0  0  0  0  0  0  0  0  0  0
    9.7272   -3.3735   24.1443 N   0  0  0  0  0  0  0  0  0  0  0  0
    9.7786   -2.1690   23.3026 C   0  0  0  0  0  0  0  0  0  0  0  0
   11.1139   -1.5607   23.1262 C   0  0  0  0  0  0  0  0  0  0  0  0
   12.0849   -1.8382   22.1827 C   0  0  0  0  0  0  0  0  0  0  0  0
   13.2390   -1.0941   22.2815 N   0  0  0  0  0  0  0  0  0  0  0  0
   13.1262   -0.2181   23.2544 C   0  0  0  0  0  0  0  0  0  0  0  0
   11.6496   -0.2652   24.1259 S   0  0  0  0  0  0  0  0  0  0  0  0
   10.4620   -3.2960   25.4588 C   0  0  0  0  0  0  0  0  0  0  0  0
   10.7193   -4.7021   26.0453 C   0  0  1  0  0  0  0  0  0  0  0  0
   10.4767   -4.6406   27.3851 F   0  0  0  0  0  0  0  0  0  0  0  0
  2  1  1  1
  2  3  1  0
  3  4  1  0
  4  5  1  0
  5  6  1  0
  5 12  1  0
  6  7  1  0
  7  8  2  0
  8  9  1  0
  9 10  2  0
 10 11  1  0
 11  7  1  0
 12 13  1  0
 13 14  1  1
 13  2  1  0
M  END
>  <TransFSScore>  (140)
0.118248

>  <SuCOS_Score>  (140)
0.63402

>  <FeatureStein>  (140)
0.518315

>  <SCORE.norm>  (140)
-0.939613

>  <Max_SuCOS_Score>  (140)
0.63402

>  <Cum_SuCOS_Score>  (140)
4.45546

>  <TransFSScore_50nM>  (140)
0.057408

>  <TransFSScore_1uM>  (140)
0.197382

>  <TransFSScore_10nM>  (140)
0.052747

>  <TransFSScore_200nM>  (140)
0.165453

>  <TETHERED ATOMS>  (140)
1,2,3,4,5,6,7,12,13

$$$$
OC1CCN(Cc2ccncn2)CC1F
     RDKit          3D

 15 16  0  0  0  0  0  0  0  0999 V2000
    8.9272   -6.1727   26.7721 O   0  0  0  0  0  0  0  0  0  0  0  0
    9.4273   -6.0403   25.4367 C   0  0  2  0  0  0  0  0  0  0  0  0
   10.7531   -5.3248   25.5487 C   0  0  0  0  0  0  0  0  0  0  0  0
   10.5007   -3.8368   25.6702 C   0  0  0  0  0  0  0  0  0  0  0  0
   10.0213   -3.3519   24.3878 N   0  0  0  0  0  0  0  0  0  0  0  0
    9.8491   -1.9331   24.3166 C   0  0  0  0  0  0  0  0  0  0  0  0
   11.1605   -1.3042   23.9142 C   0  0  0  0  0  0  0  0  0  0  0  0
   11.6753   -0.1704   24.5490 C   0  0  0  0  0  0  0  0  0  0  0  0
   12.8783    0.3326   24.0940 C   0  0  0  0  0  0  0  0  0  0  0  0
   13.5669   -0.2172   23.0757 N   0  0  0  0  0  0  0  0  0  0  0  0
   13.0098   -1.2983   22.5050 C   0  0  0  0  0  0  0  0  0  0  0  0
   11.8521   -1.8414   22.8906 N   0  0  0  0  0  0  0  0  0  0  0  0
    8.9777   -4.1521   23.7453 C   0  0  0  0  0  0  0  0  0  0  0  0
    8.4045   -5.2934   24.5854 C   0  0  2  0  0  0  0  0  0  0  0  0
    7.4747   -4.7366   25.4312 F   0  0  0  0  0  0  0  0  0  0  0  0
  2  1  1  1
  2  3  1  0
  3  4  1  0
  4  5  1  0
  5  6  1  0
  5 13  1  0
  6  7  1  0
  7  8  2  0
  8  9  1  0
  9 10  2  0
 10 11  1  0
 11 12  2  0
 12  7  1  0
 13 14  1  0
 14 15  1  1
 14  2  1  0
M  END
>  <TransFSScore>  (141)
0.179478

>  <SuCOS_Score>  (141)
0.574778

>  <FeatureStein>  (141)
0.551964

>  <SCORE.norm>  (141)
-1.07929

>  <Max_SuCOS_Score>  (141)
0.574778

>  <Cum_SuCOS_Score>  (141)
4.354603

>  <TransFSScore_50nM>  (141)
0.03017

>  <TransFSScore_1uM>  (141)
0.240871

>  <TransFSScore_10nM>  (141)
0.047209

>  <TransFSScore_200nM>  (141)
0.39966

>  <TETHERED ATOMS>  (141)
1,2,3,4,5,6,7,13,14

$$$$
OC1CCN(Cc2ccncn2)CC1F
     RDKit          3D

 15 16  0  0  0  0  0  0  0  0999 V2000
    8.9644   -6.1522   26.7437 O   0  0  0  0  0  0  0  0  0  0  0  0
    9.4828   -6.0369   25.4137 C   0  0  2  0  0  0  0  0  0  0  0  0
   10.7994   -5.3056   25.5329 C   0  0  0  0  0  0  0  0  0  0  0  0
   10.5298   -3.8186   25.6256 C   0  0  0  0  0  0  0  0  0  0  0  0
   10.0646   -3.3603   24.3282 N   0  0  0  0  0  0  0  0  0  0  0  0
    9.8788   -1.9449   24.2305 C   0  0  0  0  0  0  0  0  0  0  0  0
   11.2000   -1.3044   23.8823 C   0  0  0  0  0  0  0  0  0  0  0  0
   11.6826   -0.1716   24.5437 C   0  0  0  0  0  0  0  0  0  0  0  0
   12.8984    0.3425   24.1379 C   0  0  0  0  0  0  0  0  0  0  0  0
   13.6289   -0.1955   23.1428 N   0  0  0  0  0  0  0  0  0  0  0  0
   13.1012   -1.2763   22.5442 C   0  0  0  0  0  0  0  0  0  0  0  0
   11.9335   -1.8298   22.8820 N   0  0  0  0  0  0  0  0  0  0  0  0
    9.0389   -4.1822   23.6841 C   0  0  0  0  0  0  0  0  0  0  0  0
    8.4652   -5.3153   24.5349 C   0  0  2  0  0  0  0  0  0  0  0  0
    7.5172   -4.7542   25.3574 F   0  0  0  0  0  0  0  0  0  0  0  0
  2  1  1  1
  2  3  1  0
  3  4  1  0
  4  5  1  0
  5  6  1  0
  5 13  1  0
  6  7  1  0
  7  8  2  0
  8  9  1  0
  9 10  2  0
 10 11  1  0
 11 12  2  0
 12  7  1  0
 13 14  1  0
 14 15  1  1
 14  2  1  0
M  END
>  <TransFSScore>  (142)
0.172982

>  <SuCOS_Score>  (142)
0.565334

>  <FeatureStein>  (142)
0.542585

>  <SCORE.norm>  (142)
-1.07927

>  <Max_SuCOS_Score>  (142)
0.565334

>  <Cum_SuCOS_Score>  (142)
4.312622

>  <TransFSScore_50nM>  (142)
0.027194

>  <TransFSScore_1uM>  (142)
0.236816

>  <TransFSScore_10nM>  (142)
0.043705

>  <TransFSScore_200nM>  (142)
0.384213

>  <TETHERED ATOMS>  (142)
1,2,3,4,5,6,7,13,14

$$$$
OC1CCN(Cc2ccncn2)CC1F
     RDKit          3D

 15 16  0  0  0  0  0  0  0  0999 V2000
    8.8461   -6.1345   26.6421 O   0  0  0  0  0  0  0  0  0  0  0  0
    9.3777   -6.0165   25.3175 C   0  0  2  0  0  0  0  0  0  0  0  0
   10.7066   -5.3112   25.4545 C   0  0  0  0  0  0  0  0  0  0  0  0
   10.4641   -3.8203   25.5590 C   0  0  0  0  0  0  0  0  0  0  0  0
   10.0182   -3.3413   24.2623 N   0  0  0  0  0  0  0  0  0  0  0  0
    9.8597   -1.9217   24.1766 C   0  0  0  0  0  0  0  0  0  0  0  0
   11.1957   -1.3029   23.8459 C   0  0  0  0  0  0  0  0  0  0  0  0
   11.6892   -0.1799   24.5160 C   0  0  0  0  0  0  0  0  0  0  0  0
   12.9183    0.3146   24.1262 C   0  0  0  0  0  0  0  0  0  0  0  0
   13.6516   -0.2334   23.1386 N   0  0  0  0  0  0  0  0  0  0  0  0
   13.1131   -1.3038   22.5309 C   0  0  0  0  0  0  0  0  0  0  0  0
   11.9323   -1.8383   22.8532 N   0  0  0  0  0  0  0  0  0  0  0  0
    8.9829   -4.1378   23.6021 C   0  0  0  0  0  0  0  0  0  0  0  0
    8.3810   -5.2678   24.4374 C   0  0  2  0  0  0  0  0  0  0  0  0
    7.4368   -4.6968   25.2575 F   0  0  0  0  0  0  0  0  0  0  0  0
  2  1  1  1
  2  3  1  0
  3  4  1  0
  4  5  1  0
  5  6  1  0
  5 13  1  0
  6  7  1  0
  7  8  2  0
  8  9  1  0
  9 10  2  0
 10 11  1  0
 11 12  2  0
 12  7  1  0
 13 14  1  0
 14 15  1  1
 14  2  1  0
M  END
>  <TransFSScore>  (143)
0.168572

>  <SuCOS_Score>  (143)
0.56294

>  <FeatureStein>  (143)
0.541139

>  <SCORE.norm>  (143)
-1.07924

>  <Max_SuCOS_Score>  (143)
0.56294

>  <Cum_SuCOS_Score>  (143)
4.335424

>  <TransFSScore_50nM>  (143)
0.025663

>  <TransFSScore_1uM>  (143)
0.227861

>  <TransFSScore_10nM>  (143)
0.048043

>  <TransFSScore_200nM>  (143)
0.372721

>  <TETHERED ATOMS>  (143)
1,2,3,4,5,6,7,13,14

$$$$
OC1CCN(Cc2ccncn2)CC1F
     RDKit          3D

 15 16  0  0  0  0  0  0  0  0999 V2000
    8.8363   -6.1553   26.7760 O   0  0  0  0  0  0  0  0  0  0  0  0
    9.3754   -6.0652   25.4523 C   0  0  2  0  0  0  0  0  0  0  0  0
   10.6989   -5.3482   25.5806 C   0  0  0  0  0  0  0  0  0  0  0  0
   10.4461   -3.8569   25.6483 C   0  0  0  0  0  0  0  0  0  0  0  0
   10.0054   -3.4116   24.3378 N   0  0  0  0  0  0  0  0  0  0  0  0
    9.8383   -1.9955   24.2175 C   0  0  0  0  0  0  0  0  0  0  0  0
   11.1620   -1.3812   23.8334 C   0  0  0  0  0  0  0  0  0  0  0  0
   11.6620   -0.2302   24.4488 C   0  0  0  0  0  0  0  0  0  0  0  0
   12.8785    0.2570   24.0128 C   0  0  0  0  0  0  0  0  0  0  0  0
   13.5936   -0.3237   23.0305 N   0  0  0  0  0  0  0  0  0  0  0  0
   13.0495   -1.4200   22.4764 C   0  0  0  0  0  0  0  0  0  0  0  0
   11.8801   -1.9494   22.8454 N   0  0  0  0  0  0  0  0  0  0  0  0
    8.9793   -4.2303   23.6904 C   0  0  0  0  0  0  0  0  0  0  0  0
    8.3795   -5.3441   24.5486 C   0  0  2  0  0  0  0  0  0  0  0  0
    7.4265   -4.7600   25.3491 F   0  0  0  0  0  0  0  0  0  0  0  0
  2  1  1  1
  2  3  1  0
  3  4  1  0
  4  5  1  0
  5  6  1  0
  5 13  1  0
  6  7  1  0
  7  8  2  0
  8  9  1  0
  9 10  2  0
 10 11  1  0
 11 12  2  0
 12  7  1  0
 13 14  1  0
 14 15  1  1
 14  2  1  0
M  END
>  <TransFSScore>  (144)
0.179798

>  <SuCOS_Score>  (144)
0.573445

>  <FeatureStein>  (144)
0.537424

>  <SCORE.norm>  (144)
-1.07858

>  <Max_SuCOS_Score>  (144)
0.573445

>  <Cum_SuCOS_Score>  (144)
4.349074

>  <TransFSScore_50nM>  (144)
0.037195

>  <TransFSScore_1uM>  (144)
0.247451

>  <TransFSScore_10nM>  (144)
0.047544

>  <TransFSScore_200nM>  (144)
0.387003

>  <TETHERED ATOMS>  (144)
1,2,3,4,5,6,7,13,14

$$$$
OC1CCN(Cc2ccncn2)CC1F
     RDKit          3D

 15 16  0  0  0  0  0  0  0  0999 V2000
    8.8895   -6.1403   26.7338 O   0  0  0  0  0  0  0  0  0  0  0  0
    9.3877   -6.0482   25.3943 C   0  0  2  0  0  0  0  0  0  0  0  0
   10.7233   -5.3479   25.4851 C   0  0  0  0  0  0  0  0  0  0  0  0
   10.4910   -3.8542   25.5697 C   0  0  0  0  0  0  0  0  0  0  0  0
   10.0148   -3.3953   24.2765 N   0  0  0  0  0  0  0  0  0  0  0  0
    9.8613   -1.9765   24.1701 C   0  0  0  0  0  0  0  0  0  0  0  0
   11.1945   -1.3696   23.8081 C   0  0  0  0  0  0  0  0  0  0  0  0
   11.6959   -0.2280   24.4397 C   0  0  0  0  0  0  0  0  0  0  0  0
   12.9217    0.2531   24.0234 C   0  0  0  0  0  0  0  0  0  0  0  0
   13.6445   -0.3248   23.0452 N   0  0  0  0  0  0  0  0  0  0  0  0
   13.0988   -1.4119   22.4748 C   0  0  0  0  0  0  0  0  0  0  0  0
   11.9207   -1.9350   22.8244 N   0  0  0  0  0  0  0  0  0  0  0  0
    8.9589   -4.1974   23.6568 C   0  0  0  0  0  0  0  0  0  0  0  0
    8.3728   -5.3094   24.5268 C   0  0  2  0  0  0  0  0  0  0  0  0
    7.4527   -4.7191   25.3604 F   0  0  0  0  0  0  0  0  0  0  0  0
  2  1  1  1
  2  3  1  0
  3  4  1  0
  4  5  1  0
  5  6  1  0
  5 13  1  0
  6  7  1  0
  7  8  2  0
  8  9  1  0
  9 10  2  0
 10 11  1  0
 11 12  2  0
 12  7  1  0
 13 14  1  0
 14 15  1  1
 14  2  1  0
M  END
>  <TransFSScore>  (145)
0.172241

>  <SuCOS_Score>  (145)
0.570252

>  <FeatureStein>  (145)
0.534829

>  <SCORE.norm>  (145)
-1.07802

>  <Max_SuCOS_Score>  (145)
0.570252

>  <Cum_SuCOS_Score>  (145)
4.332052

>  <TransFSScore_50nM>  (145)
0.035455

>  <TransFSScore_1uM>  (145)
0.236339

>  <TransFSScore_10nM>  (145)
0.048678

>  <TransFSScore_200nM>  (145)
0.368492

>  <TETHERED ATOMS>  (145)
1,2,3,4,5,6,7,13,14

$$$$
OC1CCN(Cc2ccncn2)CC1F
     RDKit          3D

 15 16  0  0  0  0  0  0  0  0999 V2000
    8.9314   -6.1577   26.7616 O   0  0  0  0  0  0  0  0  0  0  0  0
    9.4250   -6.0271   25.4236 C   0  0  2  0  0  0  0  0  0  0  0  0
   10.7658   -5.3392   25.5308 C   0  0  0  0  0  0  0  0  0  0  0  0
   10.5444   -3.8473   25.6632 C   0  0  0  0  0  0  0  0  0  0  0  0
   10.0662   -3.3447   24.3871 N   0  0  0  0  0  0  0  0  0  0  0  0
    9.9223   -1.9223   24.3259 C   0  0  0  0  0  0  0  0  0  0  0  0
   11.2400   -1.3183   23.9065 C   0  0  0  0  0  0  0  0  0  0  0  0
   11.7737   -0.1814   24.5198 C   0  0  0  0  0  0  0  0  0  0  0  0
   12.9811    0.2973   24.0504 C   0  0  0  0  0  0  0  0  0  0  0  0
   13.6567   -0.2787   23.0380 N   0  0  0  0  0  0  0  0  0  0  0  0
   13.0818   -1.3613   22.4881 C   0  0  0  0  0  0  0  0  0  0  0  0
   11.9188   -1.8819   22.8884 N   0  0  0  0  0  0  0  0  0  0  0  0
    9.0023   -4.1196   23.7469 C   0  0  0  0  0  0  0  0  0  0  0  0
    8.4119   -5.2544   24.5840 C   0  0  2  0  0  0  0  0  0  0  0  0
    7.4992   -4.6842   25.4396 F   0  0  0  0  0  0  0  0  0  0  0  0
  2  1  1  1
  2  3  1  0
  3  4  1  0
  4  5  1  0
  5  6  1  0
  5 13  1  0
  6  7  1  0
  7  8  2  0
  8  9  1  0
  9 10  2  0
 10 11  1  0
 11 12  2  0
 12  7  1  0
 13 14  1  0
 14 15  1  1
 14  2  1  0
M  END
>  <TransFSScore>  (146)
0.171351

>  <SuCOS_Score>  (146)
0.573142

>  <FeatureStein>  (146)
0.543082

>  <SCORE.norm>  (146)
-1.07753

>  <Max_SuCOS_Score>  (146)
0.573142

>  <Cum_SuCOS_Score>  (146)
4.300291

>  <TransFSScore_50nM>  (146)
0.032693

>  <TransFSScore_1uM>  (146)
0.234689

>  <TransFSScore_10nM>  (146)
0.045326

>  <TransFSScore_200nM>  (146)
0.372695

>  <TETHERED ATOMS>  (146)
1,2,3,4,5,6,7,13,14

$$$$
OC1CCN(Cc2ccncn2)CC1F
     RDKit          3D

 15 16  0  0  0  0  0  0  0  0999 V2000
    8.9707   -6.1528   26.7128 O   0  0  0  0  0  0  0  0  0  0  0  0
    9.4126   -6.0367   25.3555 C   0  0  2  0  0  0  0  0  0  0  0  0
   10.7603   -5.3559   25.4044 C   0  0  0  0  0  0  0  0  0  0  0  0
   10.5525   -3.8616   25.5320 C   0  0  0  0  0  0  0  0  0  0  0  0
   10.0278   -3.3673   24.2709 N   0  0  0  0  0  0  0  0  0  0  0  0
    9.8895   -1.9447   24.2026 C   0  0  0  0  0  0  0  0  0  0  0  0
   11.2243   -1.3439   23.8358 C   0  0  0  0  0  0  0  0  0  0  0  0
   11.7488   -0.2251   24.4888 C   0  0  0  0  0  0  0  0  0  0  0  0
   12.9738    0.2525   24.0661 C   0  0  0  0  0  0  0  0  0  0  0  0
   13.6747   -0.3081   23.0622 N   0  0  0  0  0  0  0  0  0  0  0  0
   13.1074   -1.3736   22.4724 C   0  0  0  0  0  0  0  0  0  0  0  0
   11.9286   -1.8920   22.8266 N   0  0  0  0  0  0  0  0  0  0  0  0
    8.9355   -4.1415   23.6795 C   0  0  0  0  0  0  0  0  0  0  0  0
    8.3718   -5.2654   24.5490 C   0  0  2  0  0  0  0  0  0  0  0  0
    7.4963   -4.6824   25.4342 F   0  0  0  0  0  0  0  0  0  0  0  0
  2  1  1  1
  2  3  1  0
  3  4  1  0
  4  5  1  0
  5  6  1  0
  5 13  1  0
  6  7  1  0
  7  8  2  0
  8  9  1  0
  9 10  2  0
 10 11  1  0
 11 12  2  0
 12  7  1  0
 13 14  1  0
 14 15  1  1
 14  2  1  0
M  END
>  <TransFSScore>  (147)
0.166575

>  <SuCOS_Score>  (147)
0.568678

>  <FeatureStein>  (147)
0.538352

>  <SCORE.norm>  (147)
-1.07644

>  <Max_SuCOS_Score>  (147)
0.568678

>  <Cum_SuCOS_Score>  (147)
4.311305

>  <TransFSScore_50nM>  (147)
0.031517

>  <TransFSScore_1uM>  (147)
0.224756

>  <TransFSScore_10nM>  (147)
0.050304

>  <TransFSScore_200nM>  (147)
0.359722

>  <TETHERED ATOMS>  (147)
1,2,3,4,5,6,7,13,14

$$$$
OC1CCN(Cc2ccncn2)CC1F
     RDKit          3D

 15 16  0  0  0  0  0  0  0  0999 V2000
    8.9519   -6.1543   26.6787 O   0  0  0  0  0  0  0  0  0  0  0  0
    9.4703   -6.0323   25.3493 C   0  0  2  0  0  0  0  0  0  0  0  0
   10.7920   -5.3112   25.4732 C   0  0  0  0  0  0  0  0  0  0  0  0
   10.5328   -3.8231   25.5775 C   0  0  0  0  0  0  0  0  0  0  0  0
   10.0699   -3.3516   24.2840 N   0  0  0  0  0  0  0  0  0  0  0  0
    9.8939   -1.9341   24.1974 C   0  0  0  0  0  0  0  0  0  0  0  0
   11.2158   -1.3017   23.8371 C   0  0  0  0  0  0  0  0  0  0  0  0
   11.6869   -0.1416   24.4582 C   0  0  0  0  0  0  0  0  0  0  0  0
   12.9045    0.3619   24.0443 C   0  0  0  0  0  0  0  0  0  0  0  0
   13.6470   -0.2113   23.0781 N   0  0  0  0  0  0  0  0  0  0  0  0
   13.1298   -1.3172   22.5173 C   0  0  0  0  0  0  0  0  0  0  0  0
   11.9613   -1.8625   22.8653 N   0  0  0  0  0  0  0  0  0  0  0  0
    9.0381   -4.1613   23.6344 C   0  0  0  0  0  0  0  0  0  0  0  0
    8.4571   -5.2969   24.4769 C   0  0  2  0  0  0  0  0  0  0  0  0
    7.5136   -4.7356   25.3044 F   0  0  0  0  0  0  0  0  0  0  0  0
  2  1  1  1
  2  3  1  0
  3  4  1  0
  4  5  1  0
  5  6  1  0
  5 13  1  0
  6  7  1  0
  7  8  2  0
  8  9  1  0
  9 10  2  0
 10 11  1  0
 11 12  2  0
 12  7  1  0
 13 14  1  0
 14 15  1  1
 14  2  1  0
M  END
>  <TransFSScore>  (148)
0.173005

>  <SuCOS_Score>  (148)
0.564515

>  <FeatureStein>  (148)
0.53291

>  <SCORE.norm>  (148)
-1.07437

>  <Max_SuCOS_Score>  (148)
0.564515

>  <Cum_SuCOS_Score>  (148)
4.337405

>  <TransFSScore_50nM>  (148)
0.027544

>  <TransFSScore_1uM>  (148)
0.233264

>  <TransFSScore_10nM>  (148)
0.045061

>  <TransFSScore_200nM>  (148)
0.386149

>  <TETHERED ATOMS>  (148)
1,2,3,4,5,6,7,13,14

$$$$
OC1CCN(CC2CCNCC2)CC1F
     RDKit          3D

 15 16  0  0  0  0  0  0  0  0999 V2000
    9.1761   -6.3953   26.4748 O   0  0  0  0  0  0  0  0  0  0  0  0
    9.6473   -6.0325   25.1692 C   0  0  2  0  0  0  0  0  0  0  0  0
   10.8168   -5.1069   25.3869 C   0  0  0  0  0  0  0  0  0  0  0  0
   10.2626   -3.7307   25.6744 C   0  0  0  0  0  0  0  0  0  0  0  0
    9.7848   -3.1798   24.4166 N   0  0  0  0  0  0  0  0  0  0  0  0
    9.3357   -1.8271   24.5521 C   0  0  0  0  0  0  0  0  0  0  0  0
    9.6786   -1.0223   23.2769 C   0  0  0  0  0  0  0  0  0  0  0  0
    8.6221   -1.4032   22.2069 C   0  0  0  0  0  0  0  0  0  0  0  0
    8.8723   -0.7423   20.8627 C   0  0  0  0  0  0  0  0  0  0  0  0
    8.9378    0.7311   21.0526 N   0  0  0  0  0  0  0  0  0  0  0  0
   10.0181    1.1513   21.9834 C   0  0  0  0  0  0  0  0  0  0  0  0
    9.8048    0.5069   23.3471 C   0  0  0  0  0  0  0  0  0  0  0  0
    8.8699   -4.0728   23.6840 C   0  0  0  0  0  0  0  0  0  0  0  0
    8.5090   -5.3902   24.3798 C   0  0  2  0  0  0  0  0  0  0  0  0
    7.4890   -5.1177   25.2616 F   0  0  0  0  0  0  0  0  0  0  0  0
  2  1  1  1
  2  3  1  0
  3  4  1  0
  4  5  1  0
  5  6  1  0
  5 13  1  0
  6  7  1  0
  7  8  1  0
  8  9  1  0
  9 10  1  0
 10 11  1  0
 11 12  1  0
 12  7  1  0
 13 14  1  0
 14 15  1  1
 14  2  1  0
M  END
>  <TransFSScore>  (149)
0.196397

>  <SuCOS_Score>  (149)
0.391612

>  <FeatureStein>  (149)
0.52117

>  <SCORE.norm>  (149)
-1.34918

>  <Max_SuCOS_Score>  (149)
0.436164

>  <Cum_SuCOS_Score>  (149)
3.513111

>  <TransFSScore_50nM>  (149)
0.170886

>  <TransFSScore_1uM>  (149)
0.131817

>  <TransFSScore_10nM>  (149)
0.010316

>  <TransFSScore_200nM>  (149)
0.47257

>  <TETHERED ATOMS>  (149)
1,2,3,4,5,6,7,13,14

$$$$
OC1CCN(CC2CCNCC2)CC1F
     RDKit          3D

 15 16  0  0  0  0  0  0  0  0999 V2000
    8.5775   -6.3243   27.1706 O   0  0  0  0  0  0  0  0  0  0  0  0
    9.3267   -6.1687   25.9571 C   0  0  2  0  0  0  0  0  0  0  0  0
   10.4474   -5.2122   26.2751 C   0  0  0  0  0  0  0  0  0  0  0  0
    9.8822   -3.8117   26.2188 C   0  0  0  0  0  0  0  0  0  0  0  0
    9.6998   -3.4695   24.8176 N   0  0  0  0  0  0  0  0  0  0  0  0
    9.2691   -2.1155   24.6411 C   0  0  0  0  0  0  0  0  0  0  0  0
   10.2416   -1.3660   23.7009 C   0  0  0  0  0  0  0  0  0  0  0  0
   11.4351   -0.8936   24.5719 C   0  0  0  0  0  0  0  0  0  0  0  0
   12.4484   -0.0706   23.7959 C   0  0  0  0  0  0  0  0  0  0  0  0
   12.9164   -0.8584   22.6247 N   0  0  0  0  0  0  0  0  0  0  0  0
   11.8167   -1.2332   21.6973 C   0  0  0  0  0  0  0  0  0  0  0  0
   10.7748   -2.0606   22.4390 C   0  0  0  0  0  0  0  0  0  0  0  0
    8.9388   -4.4732   24.0531 C   0  0  0  0  0  0  0  0  0  0  0  0
    8.4016   -5.6669   24.8509 C   0  0  2  0  0  0  0  0  0  0  0  0
    7.2244   -5.2658   25.4388 F   0  0  0  0  0  0  0  0  0  0  0  0
  2  1  1  1
  2  3  1  0
  3  4  1  0
  4  5  1  0
  5  6  1  0
  5 13  1  0
  6  7  1  0
  7  8  1  0
  8  9  1  0
  9 10  1  0
 10 11  1  0
 11 12  1  0
 12  7  1  0
 13 14  1  0
 14 15  1  1
 14  2  1  0
M  END
>  <TransFSScore>  (150)
0.275024

>  <SuCOS_Score>  (150)
0.528332

>  <FeatureStein>  (150)
0.536006

>  <SCORE.norm>  (150)
-1.26438

>  <Max_SuCOS_Score>  (150)
0.528332

>  <Cum_SuCOS_Score>  (150)
4.210274

>  <TransFSScore_50nM>  (150)
0.090956

>  <TransFSScore_1uM>  (150)
0.207209

>  <TransFSScore_10nM>  (150)
0.052428

>  <TransFSScore_200nM>  (150)
0.749503

>  <TETHERED ATOMS>  (150)
1,2,3,4,5,6,7,13,14

$$$$
OC1CCN(CC2CCNCC2)CC1F
     RDKit          3D

 15 16  0  0  0  0  0  0  0  0999 V2000
    8.6117   -6.3105   27.2337 O   0  0  0  0  0  0  0  0  0  0  0  0
    9.3505   -6.1660   26.0126 C   0  0  2  0  0  0  0  0  0  0  0  0
   10.4691   -5.2004   26.3101 C   0  0  0  0  0  0  0  0  0  0  0  0
    9.8967   -3.8035   26.2414 C   0  0  0  0  0  0  0  0  0  0  0  0
    9.7016   -3.4790   24.8377 N   0  0  0  0  0  0  0  0  0  0  0  0
    9.2631   -2.1293   24.6484 C   0  0  0  0  0  0  0  0  0  0  0  0
   10.2339   -1.3818   23.7049 C   0  0  0  0  0  0  0  0  0  0  0  0
   11.4228   -0.8967   24.5752 C   0  0  0  0  0  0  0  0  0  0  0  0
   12.4337   -0.0742   23.7955 C   0  0  0  0  0  0  0  0  0  0  0  0
   12.9086   -0.8682   22.6313 N   0  0  0  0  0  0  0  0  0  0  0  0
   11.8131   -1.2555   21.7041 C   0  0  0  0  0  0  0  0  0  0  0  0
   10.7737   -2.0829   22.4495 C   0  0  0  0  0  0  0  0  0  0  0  0
    8.9395   -4.4955   24.0914 C   0  0  0  0  0  0  0  0  0  0  0  0
    8.4143   -5.6820   24.9078 C   0  0  2  0  0  0  0  0  0  0  0  0
    7.2399   -5.2794   25.5001 F   0  0  0  0  0  0  0  0  0  0  0  0
  2  1  1  1
  2  3  1  0
  3  4  1  0
  4  5  1  0
  5  6  1  0
  5 13  1  0
  6  7  1  0
  7  8  1  0
  8  9  1  0
  9 10  1  0
 10 11  1  0
 11 12  1  0
 12  7  1  0
 13 14  1  0
 14 15  1  1
 14  2  1  0
M  END
>  <TransFSScore>  (151)
0.275757

>  <SuCOS_Score>  (151)
0.525635

>  <FeatureStein>  (151)
0.540695

>  <SCORE.norm>  (151)
-1.26105

>  <Max_SuCOS_Score>  (151)
0.525635

>  <Cum_SuCOS_Score>  (151)
4.200363

>  <TransFSScore_50nM>  (151)
0.08776

>  <TransFSScore_1uM>  (151)
0.20706

>  <TransFSScore_10nM>  (151)
0.053052

>  <TransFSScore_200nM>  (151)
0.755154

>  <TETHERED ATOMS>  (151)
1,2,3,4,5,6,7,13,14

$$$$
OC1CCN(CC2CCNCC2)CC1F
     RDKit          3D

 15 16  0  0  0  0  0  0  0  0999 V2000
    8.6820   -6.3905   27.1478 O   0  0  0  0  0  0  0  0  0  0  0  0
    9.4063   -6.2134   25.9223 C   0  0  2  0  0  0  0  0  0  0  0  0
   10.5298   -5.2576   26.2328 C   0  0  0  0  0  0  0  0  0  0  0  0
    9.9587   -3.8586   26.2093 C   0  0  0  0  0  0  0  0  0  0  0  0
    9.7472   -3.4955   24.8175 N   0  0  0  0  0  0  0  0  0  0  0  0
    9.3084   -2.1406   24.6706 C   0  0  0  0  0  0  0  0  0  0  0  0
   10.2627   -1.3714   23.7277 C   0  0  0  0  0  0  0  0  0  0  0  0
   11.4558   -0.8870   24.5927 C   0  0  0  0  0  0  0  0  0  0  0  0
   12.4512   -0.0447   23.8143 C   0  0  0  0  0  0  0  0  0  0  0  0
   12.9217   -0.8185   22.6347 N   0  0  0  0  0  0  0  0  0  0  0  0
   11.8205   -1.2035   21.7133 C   0  0  0  0  0  0  0  0  0  0  0  0
   10.7963   -2.0505   22.4577 C   0  0  0  0  0  0  0  0  0  0  0  0
    8.9747   -4.4903   24.0528 C   0  0  0  0  0  0  0  0  0  0  0  0
    8.4576   -5.6981   24.8426 C   0  0  2  0  0  0  0  0  0  0  0  0
    7.2909   -5.3107   25.4598 F   0  0  0  0  0  0  0  0  0  0  0  0
  2  1  1  1
  2  3  1  0
  3  4  1  0
  4  5  1  0
  5  6  1  0
  5 13  1  0
  6  7  1  0
  7  8  1  0
  8  9  1  0
  9 10  1  0
 10 11  1  0
 11 12  1  0
 12  7  1  0
 13 14  1  0
 14 15  1  1
 14  2  1  0
M  END
>  <TransFSScore>  (152)
0.267533

>  <SuCOS_Score>  (152)
0.523148

>  <FeatureStein>  (152)
0.525754

>  <SCORE.norm>  (152)
-1.26105

>  <Max_SuCOS_Score>  (152)
0.523148

>  <Cum_SuCOS_Score>  (152)
4.194424

>  <TransFSScore_50nM>  (152)
0.087664

>  <TransFSScore_1uM>  (152)
0.208052

>  <TransFSScore_10nM>  (152)
0.048956

>  <TransFSScore_200nM>  (152)
0.725458

>  <TETHERED ATOMS>  (152)
1,2,3,4,5,6,7,13,14

$$$$
OC1CCN(CC2CCNCC2)CC1F
     RDKit          3D

 15 16  0  0  0  0  0  0  0  0999 V2000
    8.5660   -6.3084   27.1633 O   0  0  0  0  0  0  0  0  0  0  0  0
    9.3111   -6.1576   25.9468 C   0  0  2  0  0  0  0  0  0  0  0  0
   10.4342   -5.2016   26.2579 C   0  0  0  0  0  0  0  0  0  0  0  0
    9.8707   -3.8006   26.1992 C   0  0  0  0  0  0  0  0  0  0  0  0
    9.6838   -3.4625   24.7976 N   0  0  0  0  0  0  0  0  0  0  0  0
    9.2543   -2.1084   24.6184 C   0  0  0  0  0  0  0  0  0  0  0  0
   10.2360   -1.3573   23.6890 C   0  0  0  0  0  0  0  0  0  0  0  0
   11.4318   -0.9062   24.5682 C   0  0  0  0  0  0  0  0  0  0  0  0
   12.4545   -0.0839   23.8041 C   0  0  0  0  0  0  0  0  0  0  0  0
   12.9180   -0.8625   22.6249 N   0  0  0  0  0  0  0  0  0  0  0  0
   11.8170   -1.2162   21.6907 C   0  0  0  0  0  0  0  0  0  0  0  0
   10.7657   -2.0423   22.4205 C   0  0  0  0  0  0  0  0  0  0  0  0
    8.9188   -4.4676   24.0388 C   0  0  0  0  0  0  0  0  0  0  0  0
    8.3828   -5.6580   24.8423 C   0  0  2  0  0  0  0  0  0  0  0  0
    7.2082   -5.2535   25.4330 F   0  0  0  0  0  0  0  0  0  0  0  0
  2  1  1  1
  2  3  1  0
  3  4  1  0
  4  5  1  0
  5  6  1  0
  5 13  1  0
  6  7  1  0
  7  8  1  0
  8  9  1  0
  9 10  1  0
 10 11  1  0
 11 12  1  0
 12  7  1  0
 13 14  1  0
 14 15  1  1
 14  2  1  0
M  END
>  <TransFSScore>  (153)
0.275379

>  <SuCOS_Score>  (153)
0.530325

>  <FeatureStein>  (153)
0.541449

>  <SCORE.norm>  (153)
-1.26019

>  <Max_SuCOS_Score>  (153)
0.530325

>  <Cum_SuCOS_Score>  (153)
4.216726

>  <TransFSScore_50nM>  (153)
0.092268

>  <TransFSScore_1uM>  (153)
0.208343

>  <TransFSScore_10nM>  (153)
0.052345

>  <TransFSScore_200nM>  (153)
0.74856

>  <TETHERED ATOMS>  (153)
1,2,3,4,5,6,7,13,14

$$$$
OC1CCN(CC2CCNCC2)CC1F
     RDKit          3D

 15 16  0  0  0  0  0  0  0  0999 V2000
    8.6132   -6.2639   27.2601 O   0  0  0  0  0  0  0  0  0  0  0  0
    9.3505   -6.1362   26.0362 C   0  0  2  0  0  0  0  0  0  0  0  0
   10.4611   -5.1559   26.3151 C   0  0  0  0  0  0  0  0  0  0  0  0
    9.8771   -3.7653   26.2205 C   0  0  0  0  0  0  0  0  0  0  0  0
    9.6789   -3.4688   24.8111 N   0  0  0  0  0  0  0  0  0  0  0  0
    9.2290   -2.1265   24.5967 C   0  0  0  0  0  0  0  0  0  0  0  0
   10.2135   -1.3772   23.6689 C   0  0  0  0  0  0  0  0  0  0  0  0
   11.3917   -0.8976   24.5567 C   0  0  0  0  0  0  0  0  0  0  0  0
   12.4142   -0.0739   23.7935 C   0  0  0  0  0  0  0  0  0  0  0  0
   12.9030   -0.8643   22.6326 N   0  0  0  0  0  0  0  0  0  0  0  0
   11.8191   -1.2462   21.6896 C   0  0  0  0  0  0  0  0  0  0  0  0
   10.7686   -2.0745   22.4181 C   0  0  0  0  0  0  0  0  0  0  0  0
    8.9250   -4.5054   24.0842 C   0  0  0  0  0  0  0  0  0  0  0  0
    8.4100   -5.6806   24.9229 C   0  0  2  0  0  0  0  0  0  0  0  0
    7.2324   -5.2769   25.5082 F   0  0  0  0  0  0  0  0  0  0  0  0
  2  1  1  1
  2  3  1  0
  3  4  1  0
  4  5  1  0
  5  6  1  0
  5 13  1  0
  6  7  1  0
  7  8  1  0
  8  9  1  0
  9 10  1  0
 10 11  1  0
 11 12  1  0
 12  7  1  0
 13 14  1  0
 14 15  1  1
 14  2  1  0
M  END
>  <TransFSScore>  (154)
0.273565

>  <SuCOS_Score>  (154)
0.530319

>  <FeatureStein>  (154)
0.55607

>  <SCORE.norm>  (154)
-1.25939

>  <Max_SuCOS_Score>  (154)
0.530319

>  <Cum_SuCOS_Score>  (154)
4.218584

>  <TransFSScore_50nM>  (154)
0.085718

>  <TransFSScore_1uM>  (154)
0.206519

>  <TransFSScore_10nM>  (154)
0.052371

>  <TransFSScore_200nM>  (154)
0.749651

>  <TETHERED ATOMS>  (154)
1,2,3,4,5,6,7,13,14

$$$$
OC1CCN(CC2CCNCC2)CC1F
     RDKit          3D

 15 16  0  0  0  0  0  0  0  0999 V2000
    8.6522   -6.2635   27.2146 O   0  0  0  0  0  0  0  0  0  0  0  0
    9.3256   -6.1440   25.9536 C   0  0  2  0  0  0  0  0  0  0  0  0
   10.4811   -5.2034   26.1819 C   0  0  0  0  0  0  0  0  0  0  0  0
    9.9385   -3.7937   26.1345 C   0  0  0  0  0  0  0  0  0  0  0  0
    9.6737   -3.4733   24.7414 N   0  0  0  0  0  0  0  0  0  0  0  0
    9.2569   -2.1147   24.5665 C   0  0  0  0  0  0  0  0  0  0  0  0
   10.2486   -1.3684   23.6439 C   0  0  0  0  0  0  0  0  0  0  0  0
   11.4332   -0.9097   24.5342 C   0  0  0  0  0  0  0  0  0  0  0  0
   12.4638   -0.0909   23.7768 C   0  0  0  0  0  0  0  0  0  0  0  0
   12.9424   -0.8767   22.6085 N   0  0  0  0  0  0  0  0  0  0  0  0
   11.8532   -1.2383   21.6637 C   0  0  0  0  0  0  0  0  0  0  0  0
   10.7943   -2.0611   22.3864 C   0  0  0  0  0  0  0  0  0  0  0  0
    8.8480   -4.4760   24.0456 C   0  0  0  0  0  0  0  0  0  0  0  0
    8.3413   -5.6446   24.8985 C   0  0  2  0  0  0  0  0  0  0  0  0
    7.2110   -5.2108   25.5516 F   0  0  0  0  0  0  0  0  0  0  0  0
  2  1  1  1
  2  3  1  0
  3  4  1  0
  4  5  1  0
  5  6  1  0
  5 13  1  0
  6  7  1  0
  7  8  1  0
  8  9  1  0
  9 10  1  0
 10 11  1  0
 11 12  1  0
 12  7  1  0
 13 14  1  0
 14 15  1  1
 14  2  1  0
M  END
>  <TransFSScore>  (155)
0.269353

>  <SuCOS_Score>  (155)
0.537631

>  <FeatureStein>  (155)
0.555542

>  <SCORE.norm>  (155)
-1.25724

>  <Max_SuCOS_Score>  (155)
0.537631

>  <Cum_SuCOS_Score>  (155)
4.228585

>  <TransFSScore_50nM>  (155)
0.082645

>  <TransFSScore_1uM>  (155)
0.202422

>  <TransFSScore_10nM>  (155)
0.054043

>  <TransFSScore_200nM>  (155)
0.738302

>  <TETHERED ATOMS>  (155)
1,2,3,4,5,6,7,13,14

$$$$
OC1CCN(Cc2cccnn2)CC1F
     RDKit          3D

 15 16  0  0  0  0  0  0  0  0999 V2000
    8.8114   -5.9939   27.2845 O   0  0  0  0  0  0  0  0  0  0  0  0
    8.6819   -5.9703   25.8760 C   0  0  2  0  0  0  0  0  0  0  0  0
   10.0428   -5.6516   25.3152 C   0  0  0  0  0  0  0  0  0  0  0  0
   10.3739   -4.2091   25.5883 C   0  0  0  0  0  0  0  0  0  0  0  0
    9.4895   -3.3763   24.7001 N   0  0  0  0  0  0  0  0  0  0  0  0
    9.8396   -1.9392   24.7460 C   0  0  0  0  0  0  0  0  0  0  0  0
   11.1427   -1.5958   24.0410 C   0  0  0  0  0  0  0  0  0  0  0  0
   11.7825   -0.3541   24.2301 C   0  0  0  0  0  0  0  0  0  0  0  0
   12.9387    0.0164   23.5274 C   0  0  0  0  0  0  0  0  0  0  0  0
   13.5074   -0.8177   22.5752 C   0  0  0  0  0  0  0  0  0  0  0  0
   12.9430   -2.0010   22.3115 N   0  0  0  0  0  0  0  0  0  0  0  0
   11.6612   -2.4248   23.0989 N   0  0  0  0  0  0  0  0  0  0  0  0
    8.0312   -3.5785   25.0401 C   0  0  0  0  0  0  0  0  0  0  0  0
    7.6173   -4.9932   25.4067 C   0  0  1  0  0  0  0  0  0  0  0  0
    7.1852   -5.5062   24.1993 F   0  0  0  0  0  0  0  0  0  0  0  0
  2  1  1  1
  2  3  1  0
  3  4  1  0
  4  5  1  0
  5  6  1  0
  5 13  1  0
  6  7  1  0
  7  8  2  0
  8  9  1  0
  9 10  2  0
 10 11  1  0
 11 12  2  0
 12  7  1  0
 13 14  1  0
 14 15  1  6
 14  2  1  0
M  END
>  <TransFSScore>  (156)
0.097765

>  <SuCOS_Score>  (156)
0.590622

>  <FeatureStein>  (156)
0.497858

>  <SCORE.norm>  (156)
-0.866356

>  <Max_SuCOS_Score>  (156)
0.590622

>  <Cum_SuCOS_Score>  (156)
4.220713

>  <TransFSScore_50nM>  (156)
0.006079

>  <TransFSScore_1uM>  (156)
0.097944

>  <TransFSScore_10nM>  (156)
0.07285

>  <TransFSScore_200nM>  (156)
0.214185

>  <TETHERED ATOMS>  (156)
1,2,3,4,5,6,7,13,14

$$$$
OC1CCN(Cc2ccccn2)CC1F
     RDKit          3D

 15 16  0  0  0  0  0  0  0  0999 V2000
    8.8823   -6.1271   26.9281 O   0  0  0  0  0  0  0  0  0  0  0  0
    9.2935   -6.0971   25.5612 C   0  0  2  0  0  0  0  0  0  0  0  0
   10.6515   -5.4319   25.5533 C   0  0  0  0  0  0  0  0  0  0  0  0
   10.4545   -3.9382   25.6068 C   0  0  0  0  0  0  0  0  0  0  0  0
    9.9117   -3.5347   24.2760 N   0  0  0  0  0  0  0  0  0  0  0  0
    9.7752   -2.0685   24.1662 C   0  0  0  0  0  0  0  0  0  0  0  0
   11.1188   -1.5129   23.7445 C   0  0  0  0  0  0  0  0  0  0  0  0
   11.5954   -0.3128   24.2589 C   0  0  0  0  0  0  0  0  0  0  0  0
   12.8206    0.1614   23.8000 C   0  0  0  0  0  0  0  0  0  0  0  0
   13.5234   -0.5621   22.8420 C   0  0  0  0  0  0  0  0  0  0  0  0
   12.9731   -1.7419   22.3721 C   0  0  0  0  0  0  0  0  0  0  0  0
   11.7866   -2.2386   22.7973 N   0  0  0  0  0  0  0  0  0  0  0  0
    8.7928   -4.3572   23.7311 C   0  0  0  0  0  0  0  0  0  0  0  0
    8.2411   -5.3619   24.7336 C   0  0  2  0  0  0  0  0  0  0  0  0
    7.4458   -4.6417   25.5904 F   0  0  0  0  0  0  0  0  0  0  0  0
  2  1  1  1
  2  3  1  0
  3  4  1  0
  4  5  1  0
  5  6  1  0
  5 13  1  0
  6  7  1  0
  7  8  2  0
  8  9  1  0
  9 10  2  0
 10 11  1  0
 11 12  2  0
 12  7  1  0
 13 14  1  0
 14 15  1  1
 14  2  1  0
M  END
>  <TransFSScore>  (157)
0.10554

>  <SuCOS_Score>  (157)
0.574661

>  <FeatureStein>  (157)
0.505018

>  <SCORE.norm>  (157)
-0.731113

>  <Max_SuCOS_Score>  (157)
0.574661

>  <Cum_SuCOS_Score>  (157)
4.345174

>  <TransFSScore_50nM>  (157)
0.007544

>  <TransFSScore_1uM>  (157)
0.157165

>  <TransFSScore_10nM>  (157)
0.011881

>  <TransFSScore_200nM>  (157)
0.245571

>  <TETHERED ATOMS>  (157)
1,2,3,4,5,6,7,13,14

$$$$
OC1CCN(Cc2ccccn2)CC1F
     RDKit          3D

 15 16  0  0  0  0  0  0  0  0999 V2000
    8.8982   -6.1549   26.9236 O   0  0  0  0  0  0  0  0  0  0  0  0
    9.3058   -6.1103   25.5560 C   0  0  2  0  0  0  0  0  0  0  0  0
   10.6595   -5.4364   25.5507 C   0  0  0  0  0  0  0  0  0  0  0  0
   10.4530   -3.9444   25.6177 C   0  0  0  0  0  0  0  0  0  0  0  0
    9.9043   -3.5328   24.2918 N   0  0  0  0  0  0  0  0  0  0  0  0
    9.7581   -2.0666   24.1953 C   0  0  0  0  0  0  0  0  0  0  0  0
   11.0977   -1.4985   23.7776 C   0  0  0  0  0  0  0  0  0  0  0  0
   11.5742   -0.3084   24.3146 C   0  0  0  0  0  0  0  0  0  0  0  0
   12.7955    0.1789   23.8588 C   0  0  0  0  0  0  0  0  0  0  0  0
   13.4945   -0.5221   22.8815 C   0  0  0  0  0  0  0  0  0  0  0  0
   12.9445   -1.6932   22.3897 C   0  0  0  0  0  0  0  0  0  0  0  0
   11.7618   -2.2020   22.8112 N   0  0  0  0  0  0  0  0  0  0  0  0
    8.7894   -4.3577   23.7425 C   0  0  0  0  0  0  0  0  0  0  0  0
    8.2467   -5.3747   24.7374 C   0  0  2  0  0  0  0  0  0  0  0  0
    7.4489   -4.6672   25.6024 F   0  0  0  0  0  0  0  0  0  0  0  0
  2  1  1  1
  2  3  1  0
  3  4  1  0
  4  5  1  0
  5  6  1  0
  5 13  1  0
  6  7  1  0
  7  8  2  0
  8  9  1  0
  9 10  2  0
 10 11  1  0
 11 12  2  0
 12  7  1  0
 13 14  1  0
 14 15  1  1
 14  2  1  0
M  END
>  <TransFSScore>  (158)
0.108008

>  <SuCOS_Score>  (158)
0.574447

>  <FeatureStein>  (158)
0.514351

>  <SCORE.norm>  (158)
-0.730898

>  <Max_SuCOS_Score>  (158)
0.574447

>  <Cum_SuCOS_Score>  (158)
4.358892

>  <TransFSScore_50nM>  (158)
0.007164

>  <TransFSScore_1uM>  (158)
0.153868

>  <TransFSScore_10nM>  (158)
0.012572

>  <TransFSScore_200nM>  (158)
0.258426

>  <TETHERED ATOMS>  (158)
1,2,3,4,5,6,7,13,14

$$$$
OC1CCN(Cc2ccccn2)CC1F
     RDKit          3D

 15 16  0  0  0  0  0  0  0  0999 V2000
    8.8950   -6.1589   26.8390 O   0  0  0  0  0  0  0  0  0  0  0  0
    9.3177   -6.0990   25.4765 C   0  0  2  0  0  0  0  0  0  0  0  0
   10.6617   -5.4061   25.4916 C   0  0  0  0  0  0  0  0  0  0  0  0
   10.4334   -3.9177   25.5663 C   0  0  0  0  0  0  0  0  0  0  0  0
    9.8943   -3.5046   24.2370 N   0  0  0  0  0  0  0  0  0  0  0  0
    9.7285   -2.0400   24.1486 C   0  0  0  0  0  0  0  0  0  0  0  0
   11.0733   -1.4471   23.7856 C   0  0  0  0  0  0  0  0  0  0  0  0
   11.5238   -0.2708   24.3730 C   0  0  0  0  0  0  0  0  0  0  0  0
   12.7522    0.2415   23.9660 C   0  0  0  0  0  0  0  0  0  0  0  0
   13.4837   -0.4216   22.9862 C   0  0  0  0  0  0  0  0  0  0  0  0
   12.9583   -1.5810   22.4427 C   0  0  0  0  0  0  0  0  0  0  0  0
   11.7697   -2.1134   22.8156 N   0  0  0  0  0  0  0  0  0  0  0  0
    8.7976   -4.3414   23.6690 C   0  0  0  0  0  0  0  0  0  0  0  0
    8.2579   -5.3727   24.6506 C   0  0  2  0  0  0  0  0  0  0  0  0
    7.4401   -4.6825   25.5110 F   0  0  0  0  0  0  0  0  0  0  0  0
  2  1  1  1
  2  3  1  0
  3  4  1  0
  4  5  1  0
  5  6  1  0
  5 13  1  0
  6  7  1  0
  7  8  2  0
  8  9  1  0
  9 10  2  0
 10 11  1  0
 11 12  2  0
 12  7  1  0
 13 14  1  0
 14 15  1  1
 14  2  1  0
M  END
>  <TransFSScore>  (159)
0.110163

>  <SuCOS_Score>  (159)
0.570049

>  <FeatureStein>  (159)
0.524412

>  <SCORE.norm>  (159)
-0.728518

>  <Max_SuCOS_Score>  (159)
0.570049

>  <Cum_SuCOS_Score>  (159)
4.399579

>  <TransFSScore_50nM>  (159)
0.006444

>  <TransFSScore_1uM>  (159)
0.150797

>  <TransFSScore_10nM>  (159)
0.013192

>  <TransFSScore_200nM>  (159)
0.270221

>  <TETHERED ATOMS>  (159)
1,2,3,4,5,6,7,13,14

$$$$
OC1CCN(Cc2ccccn2)CC1F
     RDKit          3D

 15 16  0  0  0  0  0  0  0  0999 V2000
    8.8400   -6.1481   26.9312 O   0  0  0  0  0  0  0  0  0  0  0  0
    9.3049   -6.1148   25.5817 C   0  0  2  0  0  0  0  0  0  0  0  0
   10.6514   -5.4279   25.6261 C   0  0  0  0  0  0  0  0  0  0  0  0
   10.4285   -3.9374   25.6670 C   0  0  0  0  0  0  0  0  0  0  0  0
    9.9330   -3.5459   24.3143 N   0  0  0  0  0  0  0  0  0  0  0  0
    9.7776   -2.0824   24.1947 C   0  0  0  0  0  0  0  0  0  0  0  0
   11.1111   -1.5135   23.7589 C   0  0  0  0  0  0  0  0  0  0  0  0
   11.5768   -0.3042   24.2613 C   0  0  0  0  0  0  0  0  0  0  0  0
   12.7927    0.1817   23.7899 C   0  0  0  0  0  0  0  0  0  0  0  0
   13.4971   -0.5399   22.8317 C   0  0  0  0  0  0  0  0  0  0  0  0
   12.9578   -1.7297   22.3741 C   0  0  0  0  0  0  0  0  0  0  0  0
   11.7806   -2.2377   22.8117 N   0  0  0  0  0  0  0  0  0  0  0  0
    8.8501   -4.3877   23.7277 C   0  0  0  0  0  0  0  0  0  0  0  0
    8.2749   -5.3987   24.7104 C   0  0  2  0  0  0  0  0  0  0  0  0
    7.4345   -4.6893   25.5325 F   0  0  0  0  0  0  0  0  0  0  0  0
  2  1  1  1
  2  3  1  0
  3  4  1  0
  4  5  1  0
  5  6  1  0
  5 13  1  0
  6  7  1  0
  7  8  2  0
  8  9  1  0
  9 10  2  0
 10 11  1  0
 11 12  2  0
 12  7  1  0
 13 14  1  0
 14 15  1  1
 14  2  1  0
M  END
>  <TransFSScore>  (160)
0.110013

>  <SuCOS_Score>  (160)
0.57092

>  <FeatureStein>  (160)
0.504369

>  <SCORE.norm>  (160)
-0.727658

>  <Max_SuCOS_Score>  (160)
0.57092

>  <Cum_SuCOS_Score>  (160)
4.345221

>  <TransFSScore_50nM>  (160)
0.007814

>  <TransFSScore_1uM>  (160)
0.157977

>  <TransFSScore_10nM>  (160)
0.010996

>  <TransFSScore_200nM>  (160)
0.263265

>  <TETHERED ATOMS>  (160)
1,2,3,4,5,6,7,13,14

$$$$
OC1CCN(Cc2ccccn2)CC1F
     RDKit          3D

 15 16  0  0  0  0  0  0  0  0999 V2000
    8.8602   -6.0941   26.8783 O   0  0  0  0  0  0  0  0  0  0  0  0
    9.3029   -6.0499   25.5216 C   0  0  2  0  0  0  0  0  0  0  0  0
   10.6688   -5.4017   25.5541 C   0  0  0  0  0  0  0  0  0  0  0  0
   10.4887   -3.9065   25.6245 C   0  0  0  0  0  0  0  0  0  0  0  0
    9.9815   -3.4775   24.2877 N   0  0  0  0  0  0  0  0  0  0  0  0
    9.8654   -2.0084   24.1960 C   0  0  0  0  0  0  0  0  0  0  0  0
   11.2140   -1.4672   23.7717 C   0  0  0  0  0  0  0  0  0  0  0  0
   11.7127   -0.2819   24.2993 C   0  0  0  0  0  0  0  0  0  0  0  0
   12.9415    0.1803   23.8377 C   0  0  0  0  0  0  0  0  0  0  0  0
   13.6259   -0.5400   22.8642 C   0  0  0  0  0  0  0  0  0  0  0  0
   13.0543   -1.7046   22.3818 C   0  0  0  0  0  0  0  0  0  0  0  0
   11.8635   -2.1893   22.8092 N   0  0  0  0  0  0  0  0  0  0  0  0
    8.8654   -4.2783   23.7058 C   0  0  0  0  0  0  0  0  0  0  0  0
    8.2788   -5.2900   24.6809 C   0  0  2  0  0  0  0  0  0  0  0  0
    7.4729   -4.5721   25.5297 F   0  0  0  0  0  0  0  0  0  0  0  0
  2  1  1  1
  2  3  1  0
  3  4  1  0
  4  5  1  0
  5  6  1  0
  5 13  1  0
  6  7  1  0
  7  8  2  0
  8  9  1  0
  9 10  2  0
 10 11  1  0
 11 12  2  0
 12  7  1  0
 13 14  1  0
 14 15  1  1
 14  2  1  0
M  END
>  <TransFSScore>  (161)
0.10262

>  <SuCOS_Score>  (161)
0.577869

>  <FeatureStein>  (161)
0.503274

>  <SCORE.norm>  (161)
-0.726999

>  <Max_SuCOS_Score>  (161)
0.577869

>  <Cum_SuCOS_Score>  (161)
4.31384

>  <TransFSScore_50nM>  (161)
0.008754

>  <TransFSScore_1uM>  (161)
0.157681

>  <TransFSScore_10nM>  (161)
0.010992

>  <TransFSScore_200nM>  (161)
0.233055

>  <TETHERED ATOMS>  (161)
1,2,3,4,5,6,7,13,14

$$$$
OC1CCN(Cc2ccccn2)CC1F
     RDKit          3D

 15 16  0  0  0  0  0  0  0  0999 V2000
    8.8780   -6.1436   26.9157 O   0  0  0  0  0  0  0  0  0  0  0  0
    9.2620   -6.0921   25.5415 C   0  0  2  0  0  0  0  0  0  0  0  0
   10.6271   -5.4419   25.5187 C   0  0  0  0  0  0  0  0  0  0  0  0
   10.4481   -3.9473   25.6042 C   0  0  0  0  0  0  0  0  0  0  0  0
    9.8834   -3.5126   24.2925 N   0  0  0  0  0  0  0  0  0  0  0  0
    9.7614   -2.0432   24.2131 C   0  0  0  0  0  0  0  0  0  0  0  0
   11.1031   -1.4943   23.7770 C   0  0  0  0  0  0  0  0  0  0  0  0
   11.5865   -0.2915   24.2784 C   0  0  0  0  0  0  0  0  0  0  0  0
   12.8095    0.1761   23.8067 C   0  0  0  0  0  0  0  0  0  0  0  0
   13.5032   -0.5566   22.8492 C   0  0  0  0  0  0  0  0  0  0  0  0
   12.9465   -1.7386   22.3925 C   0  0  0  0  0  0  0  0  0  0  0  0
   11.7619   -2.2290   22.8304 N   0  0  0  0  0  0  0  0  0  0  0  0
    8.7445   -4.3123   23.7550 C   0  0  0  0  0  0  0  0  0  0  0  0
    8.2017   -5.3297   24.7493 C   0  0  2  0  0  0  0  0  0  0  0  0
    7.4319   -4.6173   25.6354 F   0  0  0  0  0  0  0  0  0  0  0  0
  2  1  1  1
  2  3  1  0
  3  4  1  0
  4  5  1  0
  5  6  1  0
  5 13  1  0
  6  7  1  0
  7  8  2  0
  8  9  1  0
  9 10  2  0
 10 11  1  0
 11 12  2  0
 12  7  1  0
 13 14  1  0
 14 15  1  1
 14  2  1  0
M  END
>  <TransFSScore>  (162)
0.107279

>  <SuCOS_Score>  (162)
0.577684

>  <FeatureStein>  (162)
0.516542

>  <SCORE.norm>  (162)
-0.726526

>  <Max_SuCOS_Score>  (162)
0.577684

>  <Cum_SuCOS_Score>  (162)
4.362052

>  <TransFSScore_50nM>  (162)
0.007545

>  <TransFSScore_1uM>  (162)
0.154738

>  <TransFSScore_10nM>  (162)
0.013667

>  <TransFSScore_200nM>  (162)
0.253166

>  <TETHERED ATOMS>  (162)
1,2,3,4,5,6,7,13,14

$$$$
OC1CCN(Cc2ccccn2)CC1F
     RDKit          3D

 15 16  0  0  0  0  0  0  0  0999 V2000
    8.9056   -6.1693   26.9160 O   0  0  0  0  0  0  0  0  0  0  0  0
    9.3377   -6.1425   25.5554 C   0  0  2  0  0  0  0  0  0  0  0  0
   10.6594   -5.4077   25.5567 C   0  0  0  0  0  0  0  0  0  0  0  0
   10.3844   -3.9255   25.5788 C   0  0  0  0  0  0  0  0  0  0  0  0
    9.8440   -3.5749   24.2322 N   0  0  0  0  0  0  0  0  0  0  0  0
    9.6336   -2.1200   24.0927 C   0  0  0  0  0  0  0  0  0  0  0  0
   10.9723   -1.4918   23.7687 C   0  0  0  0  0  0  0  0  0  0  0  0
   11.3992   -0.3352   24.4104 C   0  0  0  0  0  0  0  0  0  0  0  0
   12.6232    0.2125   24.0380 C   0  0  0  0  0  0  0  0  0  0  0  0
   13.3738   -0.3967   23.0378 C   0  0  0  0  0  0  0  0  0  0  0  0
   12.8714   -1.5394   22.4398 C   0  0  0  0  0  0  0  0  0  0  0  0
   11.6878   -2.1052   22.7778 N   0  0  0  0  0  0  0  0  0  0  0  0
    8.7785   -4.4642   23.6852 C   0  0  0  0  0  0  0  0  0  0  0  0
    8.2628   -5.4781   24.6975 C   0  0  2  0  0  0  0  0  0  0  0  0
    7.4169   -4.7850   25.5277 F   0  0  0  0  0  0  0  0  0  0  0  0
  2  1  1  1
  2  3  1  0
  3  4  1  0
  4  5  1  0
  5  6  1  0
  5 13  1  0
  6  7  1  0
  7  8  2  0
  8  9  1  0
  9 10  2  0
 10 11  1  0
 11 12  2  0
 12  7  1  0
 13 14  1  0
 14 15  1  1
 14  2  1  0
M  END
>  <TransFSScore>  (163)
0.114426

>  <SuCOS_Score>  (163)
0.563516

>  <FeatureStein>  (163)
0.527949

>  <SCORE.norm>  (163)
-0.725617

>  <Max_SuCOS_Score>  (163)
0.563516

>  <Cum_SuCOS_Score>  (163)
4.421671

>  <TransFSScore_50nM>  (163)
0.006351

>  <TransFSScore_1uM>  (163)
0.159721

>  <TransFSScore_10nM>  (163)
0.014973

>  <TransFSScore_200nM>  (163)
0.276659

>  <TETHERED ATOMS>  (163)
1,2,3,4,5,6,7,13,14

$$$$
OC1CCN(Cc2ccccn2)CC1F
     RDKit          3D

 15 16  0  0  0  0  0  0  0  0999 V2000
    8.9615   -6.1590   26.8695 O   0  0  0  0  0  0  0  0  0  0  0  0
    9.3220   -6.0800   25.4903 C   0  0  2  0  0  0  0  0  0  0  0  0
   10.6719   -5.3993   25.4551 C   0  0  0  0  0  0  0  0  0  0  0  0
   10.4615   -3.9104   25.5646 C   0  0  0  0  0  0  0  0  0  0  0  0
    9.8663   -3.4703   24.2683 N   0  0  0  0  0  0  0  0  0  0  0  0
    9.7107   -2.0030   24.2118 C   0  0  0  0  0  0  0  0  0  0  0  0
   11.0509   -1.4140   23.8263 C   0  0  0  0  0  0  0  0  0  0  0  0
   11.5189   -0.2440   24.4128 C   0  0  0  0  0  0  0  0  0  0  0  0
   12.7414    0.2652   23.9851 C   0  0  0  0  0  0  0  0  0  0  0  0
   13.4501   -0.3945   22.9864 C   0  0  0  0  0  0  0  0  0  0  0  0
   12.9083   -1.5475   22.4453 C   0  0  0  0  0  0  0  0  0  0  0  0
   11.7246   -2.0768   22.8380 N   0  0  0  0  0  0  0  0  0  0  0  0
    8.7367   -4.2875   23.7377 C   0  0  0  0  0  0  0  0  0  0  0  0
    8.2325   -5.3305   24.7259 C   0  0  2  0  0  0  0  0  0  0  0  0
    7.4617   -4.6476   25.6341 F   0  0  0  0  0  0  0  0  0  0  0  0
  2  1  1  1
  2  3  1  0
  3  4  1  0
  4  5  1  0
  5  6  1  0
  5 13  1  0
  6  7  1  0
  7  8  2  0
  8  9  1  0
  9 10  2  0
 10 11  1  0
 11 12  2  0
 12  7  1  0
 13 14  1  0
 14 15  1  1
 14  2  1  0
M  END
>  <TransFSScore>  (164)
0.112187

>  <SuCOS_Score>  (164)
0.579351

>  <FeatureStein>  (164)
0.547295

>  <SCORE.norm>  (164)
-0.724841

>  <Max_SuCOS_Score>  (164)
0.579351

>  <Cum_SuCOS_Score>  (164)
4.436934

>  <TransFSScore_50nM>  (164)
0.006166

>  <TransFSScore_1uM>  (164)
0.14849

>  <TransFSScore_10nM>  (164)
0.015841

>  <TransFSScore_200nM>  (164)
0.278251

>  <TETHERED ATOMS>  (164)
1,2,3,4,5,6,7,13,14

$$$$
OC1CCN(CC2CCC3CC3C2)CC1F
     RDKit          3D

 16 18  0  0  0  0  0  0  0  0999 V2000
    8.7493   -6.1684   27.0686 O   0  0  0  0  0  0  0  0  0  0  0  0
    9.0215   -5.2777   26.0523 C   0  0  1  0  0  0  0  0  0  0  0  0
   10.3809   -4.6631   26.0388 C   0  0  0  0  0  0  0  0  0  0  0  0
   10.0883   -3.2052   25.7614 C   0  0  0  0  0  0  0  0  0  0  0  0
    9.1319   -3.0447   24.6284 N   0  0  0  0  0  0  0  0  0  0  0  0
    9.0075   -1.7274   24.0100 C   0  0  0  0  0  0  0  0  0  0  0  0
   10.2542   -1.1429   23.3599 C   0  0  1  0  0  0  0  0  0  0  0  0
   11.3047   -0.4743   24.3208 C   0  0  0  0  0  0  0  0  0  0  0  0
   12.6348   -0.0713   23.6210 C   0  0  0  0  0  0  0  0  0  0  0  0
   13.0184   -1.2306   22.7745 C   0  0  2  0  0  0  0  0  0  0  0  0
   13.4440   -1.4906   21.3655 C   0  0  0  0  0  0  0  0  0  0  0  0
   11.9935   -1.2641   21.6484 C   0  0  1  0  0  0  0  0  0  0  0  0
   10.8323   -2.0164   22.1899 C   0  0  0  0  0  0  0  0  0  0  0  0
    8.8713   -4.2682   23.7710 C   0  0  0  0  0  0  0  0  0  0  0  0
    8.4039   -5.4289   24.6778 C   0  0  2  0  0  0  0  0  0  0  0  0
    7.0488   -5.2825   24.8122 F   0  0  0  0  0  0  0  0  0  0  0  0
  2  1  1  6
  2  3  1  0
  3  4  1  0
  4  5  1  0
  5  6  1  0
  5 14  1  0
  7  6  1  1
  7  8  1  0
  8  9  1  0
 10  9  1  6
 10 11  1  0
 12 11  1  6
 12 13  1  0
 12 10  1  0
 13  7  1  0
 14 15  1  0
 15 16  1  1
 15  2  1  0
M  END
>  <TransFSScore>  (165)
0.115498

>  <SuCOS_Score>  (165)
0.623017

>  <FeatureStein>  (165)
0.537568

>  <SCORE.norm>  (165)
-0.745506

>  <Max_SuCOS_Score>  (165)
0.623017

>  <Cum_SuCOS_Score>  (165)
5.137143

>  <TransFSScore_50nM>  (165)
0.009528

>  <TransFSScore_1uM>  (165)
0.136919

>  <TransFSScore_10nM>  (165)
0.033993

>  <TransFSScore_200nM>  (165)
0.28155

>  <TETHERED ATOMS>  (165)
1,2,3,4,5,6,7,14,15

$$$$
OC1CCN(CC2CCC=CCC2)CC1F
     RDKit          3D

 16 17  0  0  0  0  0  0  0  0999 V2000
    9.5618   -6.7732   26.0325 O   0  0  0  0  0  0  0  0  0  0  0  0
    9.5846   -5.6035   25.2934 C   0  0  1  0  0  0  0  0  0  0  0  0
   10.9013   -4.8990   25.2910 C   0  0  0  0  0  0  0  0  0  0  0  0
   10.4689   -3.4656   25.4770 C   0  0  0  0  0  0  0  0  0  0  0  0
    9.7041   -3.0136   24.3231 N   0  0  0  0  0  0  0  0  0  0  0  0
    9.1415   -1.6975   24.5296 C   0  0  0  0  0  0  0  0  0  0  0  0
   10.0580   -0.6308   23.8892 C   0  0  0  0  0  0  0  0  0  0  0  0
   10.3946   -0.9513   22.4163 C   0  0  0  0  0  0  0  0  0  0  0  0
   11.5496   -1.9332   22.2028 C   0  0  0  0  0  0  0  0  0  0  0  0
   12.9211   -1.3421   22.3624 C   0  0  0  0  0  0  0  0  0  0  0  0
   13.2767   -0.3139   23.1474 C   0  0  0  0  0  0  0  0  0  0  0  0
   12.4209    0.4006   24.1538 C   0  0  0  0  0  0  0  0  0  0  0  0
   11.3139   -0.4528   24.7729 C   0  0  0  0  0  0  0  0  0  0  0  0
    8.7516   -3.9320   23.6846 C   0  0  0  0  0  0  0  0  0  0  0  0
    8.8441   -5.4347   24.0072 C   0  0  2  0  0  0  0  0  0  0  0  0
    7.5917   -5.9559   24.1432 F   0  0  0  0  0  0  0  0  0  0  0  0
  2  1  1  6
  2  3  1  0
  3  4  1  0
  4  5  1  0
  5  6  1  0
  5 14  1  0
  7  6  1  0
  7  8  1  0
  8  9  1  0
  9 10  1  0
 10 11  2  0
 11 12  1  0
 12 13  1  0
 13  7  1  0
 14 15  1  0
 15 16  1  1
 15  2  1  0
M  END
>  <TransFSScore>  (166)
0.092535

>  <SuCOS_Score>  (166)
0.573826

>  <FeatureStein>  (166)
0.548575

>  <SCORE.norm>  (166)
-0.834004

>  <Max_SuCOS_Score>  (166)
0.573826

>  <Cum_SuCOS_Score>  (166)
4.578331

>  <TransFSScore_50nM>  (166)
0.007851

>  <TransFSScore_1uM>  (166)
0.091879

>  <TransFSScore_10nM>  (166)
0.022145

>  <TransFSScore_200nM>  (166)
0.248263

>  <TETHERED ATOMS>  (166)
1,2,3,4,5,6,7,14,15

$$$$
OC1CCN(Cc2cnns2)CC1F
     RDKit          3D

 14 15  0  0  0  0  0  0  0  0999 V2000
    9.8956   -6.5706   25.4930 O   0  0  0  0  0  0  0  0  0  0  0  0
    9.8619   -5.2176   25.2382 C   0  0  1  0  0  0  0  0  0  0  0  0
    8.5393   -4.6652   24.8213 C   0  0  0  0  0  0  0  0  0  0  0  0
    8.8614   -3.8240   23.6087 C   0  0  0  0  0  0  0  0  0  0  0  0
   10.0912   -2.9941   23.8139 N   0  0  0  0  0  0  0  0  0  0  0  0
   10.3184   -1.8686   22.9014 C   0  0  0  0  0  0  0  0  0  0  0  0
   11.5790   -1.0968   23.0977 C   0  0  0  0  0  0  0  0  0  0  0  0
   11.8612   -0.0812   24.0129 C   0  0  0  0  0  0  0  0  0  0  0  0
   13.1576    0.4029   24.0242 N   0  0  0  0  0  0  0  0  0  0  0  0
   13.9042   -0.3007   23.1084 N   0  0  0  0  0  0  0  0  0  0  0  0
   13.0403   -1.5005   22.2388 S   0  0  0  0  0  0  0  0  0  0  0  0
   10.6102   -2.8453   25.2334 C   0  0  0  0  0  0  0  0  0  0  0  0
   10.7372   -4.2170   25.9394 C   0  0  1  0  0  0  0  0  0  0  0  0
   10.2604   -4.0622   27.2064 F   0  0  0  0  0  0  0  0  0  0  0  0
  2  1  1  1
  2  3  1  0
  3  4  1  0
  4  5  1  0
  5  6  1  0
  5 12  1  0
  6  7  1  0
  7  8  2  0
  8  9  1  0
  9 10  2  0
 10 11  1  0
 11  7  1  0
 12 13  1  0
 13 14  1  1
 13  2  1  0
M  END
>  <TransFSScore>  (167)
0.178874

>  <SuCOS_Score>  (167)
0.579951

>  <FeatureStein>  (167)
0.494748

>  <SCORE.norm>  (167)
-1.10755

>  <Max_SuCOS_Score>  (167)
0.579951

>  <Cum_SuCOS_Score>  (167)
4.484347

>  <TransFSScore_50nM>  (167)
0.076217

>  <TransFSScore_1uM>  (167)
0.170797

>  <TransFSScore_10nM>  (167)
0.053672

>  <TransFSScore_200nM>  (167)
0.414812

>  <TETHERED ATOMS>  (167)
1,2,3,4,5,6,7,12,13

$$$$
O=S1(=O)CCC(CN2CCC(O)C(F)C2)C1
     RDKit          3D

 16 17  0  0  0  0  0  0  0  0999 V2000
   12.8136   -1.3938   20.7799 O   0  0  0  0  0  0  0  0  0  0  0  0
   12.7034   -1.1774   22.2074 S   0  0  0  0  0  0  0  0  0  0  0  0
   13.8629   -1.0347   23.0625 O   0  0  0  0  0  0  0  0  0  0  0  0
   11.6065    0.1971   22.4967 C   0  0  0  0  0  0  0  0  0  0  0  0
   10.2552   -0.4334   22.8172 C   0  0  0  0  0  0  0  0  0  0  0  0
   10.5542   -1.6735   23.6860 C   0  0  1  0  0  0  0  0  0  0  0  0
    9.3434   -2.5807   23.9280 C   0  0  0  0  0  0  0  0  0  0  0  0
    9.7512   -3.7509   24.6657 N   0  0  0  0  0  0  0  0  0  0  0  0
   10.1219   -3.4448   26.0386 C   0  0  0  0  0  0  0  0  0  0  0  0
   10.3763   -4.7120   26.8164 C   0  0  0  0  0  0  0  0  0  0  0  0
    9.0208   -5.3364   26.8153 C   0  0  2  0  0  0  0  0  0  0  0  0
    8.6399   -5.8792   28.0296 O   0  0  0  0  0  0  0  0  0  0  0  0
    8.6790   -5.9579   25.5010 C   0  0  1  0  0  0  0  0  0  0  0  0
    7.3726   -6.3469   25.5202 F   0  0  0  0  0  0  0  0  0  0  0  0
    8.8939   -4.9135   24.3898 C   0  0  0  0  0  0  0  0  0  0  0  0
   11.6331   -2.4313   22.8886 C   0  0  0  0  0  0  0  0  0  0  0  0
  1  2  2  0
  2  3  2  0
  2  4  1  0
  4  5  1  0
  5  6  1  0
  6  7  1  6
  6 16  1  0
  7  8  1  0
  8  9  1  0
  9 10  1  0
 10 11  1  0
 11 12  1  1
 11 13  1  0
 13 14  1  1
 13 15  1  0
 15  8  1  0
 16  2  1  0
M  END
>  <TransFSScore>  (168)
0.108604

>  <SuCOS_Score>  (168)
0.518605

>  <FeatureStein>  (168)
0.495863

>  <SCORE.norm>  (168)
-0.644842

>  <Max_SuCOS_Score>  (168)
0.518605

>  <Cum_SuCOS_Score>  (168)
4.255746

>  <TransFSScore_50nM>  (168)
0.012097

>  <TransFSScore_1uM>  (168)
0.175413

>  <TransFSScore_10nM>  (168)
0.009542

>  <TransFSScore_200nM>  (168)
0.237365

>  <TETHERED ATOMS>  (168)
12,11,10,9,8,7,6,15,13

$$$$
O=S1(=O)CCC(CN2CCC(O)C(F)C2)C1
     RDKit          3D

 16 17  0  0  0  0  0  0  0  0999 V2000
   12.8434   -1.4035   20.7883 O   0  0  0  0  0  0  0  0  0  0  0  0
   12.6859   -1.1589   22.2068 S   0  0  0  0  0  0  0  0  0  0  0  0
   13.8158   -0.9683   23.0916 O   0  0  0  0  0  0  0  0  0  0  0  0
   11.5473    0.1934   22.4332 C   0  0  0  0  0  0  0  0  0  0  0  0
   10.2032   -0.4640   22.7286 C   0  0  0  0  0  0  0  0  0  0  0  0
   10.5069   -1.6769   23.6335 C   0  0  1  0  0  0  0  0  0  0  0  0
    9.3123   -2.6089   23.8607 C   0  0  0  0  0  0  0  0  0  0  0  0
    9.7341   -3.7681   24.6077 N   0  0  0  0  0  0  0  0  0  0  0  0
   10.1467   -3.4394   25.9633 C   0  0  0  0  0  0  0  0  0  0  0  0
   10.4157   -4.6938   26.7568 C   0  0  0  0  0  0  0  0  0  0  0  0
    9.0568   -5.3088   26.8068 C   0  0  2  0  0  0  0  0  0  0  0  0
    8.7083   -5.8266   28.0416 O   0  0  0  0  0  0  0  0  0  0  0  0
    8.6727   -5.9520   25.5148 C   0  0  1  0  0  0  0  0  0  0  0  0
    7.3650   -6.3316   25.5794 F   0  0  0  0  0  0  0  0  0  0  0  0
    8.8617   -4.9297   24.3787 C   0  0  0  0  0  0  0  0  0  0  0  0
   11.6272   -2.4243   22.8849 C   0  0  0  0  0  0  0  0  0  0  0  0
  1  2  2  0
  2  3  2  0
  2  4  1  0
  4  5  1  0
  5  6  1  0
  6  7  1  6
  6 16  1  0
  7  8  1  0
  8  9  1  0
  9 10  1  0
 10 11  1  0
 11 12  1  1
 11 13  1  0
 13 14  1  1
 13 15  1  0
 15  8  1  0
 16  2  1  0
M  END
>  <TransFSScore>  (169)
0.109165

>  <SuCOS_Score>  (169)
0.520437

>  <FeatureStein>  (169)
0.517105

>  <SCORE.norm>  (169)
-0.633183

>  <Max_SuCOS_Score>  (169)
0.520437

>  <Cum_SuCOS_Score>  (169)
4.262711

>  <TransFSScore_50nM>  (169)
0.012006

>  <TransFSScore_1uM>  (169)
0.173341

>  <TransFSScore_10nM>  (169)
0.010249

>  <TransFSScore_200nM>  (169)
0.241064

>  <TETHERED ATOMS>  (169)
12,11,10,9,8,7,6,15,13

$$$$
O=S1(=O)CCC(CN2CCC(O)C(F)C2)C1
     RDKit          3D

 16 17  0  0  0  0  0  0  0  0999 V2000
   12.7797   -1.4359   20.7891 O   0  0  0  0  0  0  0  0  0  0  0  0
   12.6717   -1.1759   22.2095 S   0  0  0  0  0  0  0  0  0  0  0  0
   13.8325   -1.0192   23.0603 O   0  0  0  0  0  0  0  0  0  0  0  0
   11.5884    0.2175   22.4573 C   0  0  0  0  0  0  0  0  0  0  0  0
   10.2310   -0.3898   22.7961 C   0  0  0  0  0  0  0  0  0  0  0  0
   10.5176   -1.6063   23.7017 C   0  0  1  0  0  0  0  0  0  0  0  0
    9.2980   -2.4938   23.9703 C   0  0  0  0  0  0  0  0  0  0  0  0
    9.7103   -3.6937   24.6560 N   0  0  0  0  0  0  0  0  0  0  0  0
   10.0998   -3.4433   26.0349 C   0  0  0  0  0  0  0  0  0  0  0  0
   10.3587   -4.7412   26.7589 C   0  0  0  0  0  0  0  0  0  0  0  0
    9.0007   -5.3600   26.7508 C   0  0  2  0  0  0  0  0  0  0  0  0
    8.6331   -5.9489   27.9476 O   0  0  0  0  0  0  0  0  0  0  0  0
    8.6394   -5.9279   25.4175 C   0  0  1  0  0  0  0  0  0  0  0  0
    7.3317   -6.3125   25.4384 F   0  0  0  0  0  0  0  0  0  0  0  0
    8.8445   -4.8413   24.3457 C   0  0  0  0  0  0  0  0  0  0  0  0
   11.5890   -2.3982   22.9276 C   0  0  0  0  0  0  0  0  0  0  0  0
  1  2  2  0
  2  3  2  0
  2  4  1  0
  4  5  1  0
  5  6  1  0
  6  7  1  6
  6 16  1  0
  7  8  1  0
  8  9  1  0
  9 10  1  0
 10 11  1  0
 11 12  1  1
 11 13  1  0
 13 14  1  1
 13 15  1  0
 15  8  1  0
 16  2  1  0
M  END
>  <TransFSScore>  (170)
0.111007

>  <SuCOS_Score>  (170)
0.523425

>  <FeatureStein>  (170)
0.509874

>  <SCORE.norm>  (170)
-0.630163

>  <Max_SuCOS_Score>  (170)
0.523425

>  <Cum_SuCOS_Score>  (170)
4.294116

>  <TransFSScore_50nM>  (170)
0.013774

>  <TransFSScore_1uM>  (170)
0.190915

>  <TransFSScore_10nM>  (170)
0.010954

>  <TransFSScore_200nM>  (170)
0.228383

>  <TETHERED ATOMS>  (170)
12,11,10,9,8,7,6,15,13

$$$$
O=S1(=O)CCC(CN2CCC(O)C(F)C2)C1
     RDKit          3D

 16 17  0  0  0  0  0  0  0  0999 V2000
   12.9167   -1.3750   20.7324 O   0  0  0  0  0  0  0  0  0  0  0  0
   12.7836   -1.1801   22.1611 S   0  0  0  0  0  0  0  0  0  0  0  0
   13.9293   -1.0648   23.0386 O   0  0  0  0  0  0  0  0  0  0  0  0
   11.6977    0.2026   22.4531 C   0  0  0  0  0  0  0  0  0  0  0  0
   10.3338   -0.4169   22.7396 C   0  0  0  0  0  0  0  0  0  0  0  0
   10.6028   -1.6741   23.5935 C   0  0  1  0  0  0  0  0  0  0  0  0
    9.3775   -2.5706   23.7994 C   0  0  0  0  0  0  0  0  0  0  0  0
    9.7643   -3.7709   24.4990 N   0  0  0  0  0  0  0  0  0  0  0  0
   10.2362   -3.5034   25.8487 C   0  0  0  0  0  0  0  0  0  0  0  0
   10.4671   -4.7927   26.5971 C   0  0  0  0  0  0  0  0  0  0  0  0
    9.0814   -5.3411   26.6753 C   0  0  2  0  0  0  0  0  0  0  0  0
    8.7470   -5.8776   27.9060 O   0  0  0  0  0  0  0  0  0  0  0  0
    8.6241   -5.9258   25.3793 C   0  0  1  0  0  0  0  0  0  0  0  0
    7.3018   -6.2422   25.4770 F   0  0  0  0  0  0  0  0  0  0  0  0
    8.8277   -4.8807   24.2667 C   0  0  0  0  0  0  0  0  0  0  0  0
   11.6869   -2.4318   22.8031 C   0  0  0  0  0  0  0  0  0  0  0  0
  1  2  2  0
  2  3  2  0
  2  4  1  0
  4  5  1  0
  5  6  1  0
  6  7  1  6
  6 16  1  0
  7  8  1  0
  8  9  1  0
  9 10  1  0
 10 11  1  0
 11 12  1  1
 11 13  1  0
 13 14  1  1
 13 15  1  0
 15  8  1  0
 16  2  1  0
M  END
>  <TransFSScore>  (171)
0.113272

>  <SuCOS_Score>  (171)
0.524881

>  <FeatureStein>  (171)
0.524602

>  <SCORE.norm>  (171)
-0.627001

>  <Max_SuCOS_Score>  (171)
0.524881

>  <Cum_SuCOS_Score>  (171)
4.289254

>  <TransFSScore_50nM>  (171)
0.012067

>  <TransFSScore_1uM>  (171)
0.195655

>  <TransFSScore_10nM>  (171)
0.009466

>  <TransFSScore_200nM>  (171)
0.2359

>  <TETHERED ATOMS>  (171)
12,11,10,9,8,7,6,15,13

$$$$
OC1CCN(Cc2cnccn2)CC1F
     RDKit          3D

 15 16  0  0  0  0  0  0  0  0999 V2000
    8.8540   -6.1039   26.8729 O   0  0  0  0  0  0  0  0  0  0  0  0
    9.3386   -6.0368   25.5268 C   0  0  2  0  0  0  0  0  0  0  0  0
   10.6980   -5.3816   25.5973 C   0  0  0  0  0  0  0  0  0  0  0  0
   10.5172   -3.8804   25.6765 C   0  0  0  0  0  0  0  0  0  0  0  0
   10.0405   -3.4122   24.3868 N   0  0  0  0  0  0  0  0  0  0  0  0
    9.9366   -1.9897   24.2719 C   0  0  0  0  0  0  0  0  0  0  0  0
   11.2496   -1.4418   23.7825 C   0  0  0  0  0  0  0  0  0  0  0  0
   11.8315   -0.2884   24.3048 C   0  0  0  0  0  0  0  0  0  0  0  0
   13.0130    0.1982   23.8642 N   0  0  0  0  0  0  0  0  0  0  0  0
   13.6238   -0.4724   22.8668 C   0  0  0  0  0  0  0  0  0  0  0  0
   13.0821   -1.6154   22.3057 C   0  0  0  0  0  0  0  0  0  0  0  0
   11.9074   -2.0703   22.7812 N   0  0  0  0  0  0  0  0  0  0  0  0
    8.9511   -4.1819   23.7837 C   0  0  0  0  0  0  0  0  0  0  0  0
    8.3387   -5.2692   24.6669 C   0  0  2  0  0  0  0  0  0  0  0  0
    7.4485   -4.6440   25.5076 F   0  0  0  0  0  0  0  0  0  0  0  0
  2  1  1  1
  2  3  1  0
  3  4  1  0
  4  5  1  0
  5  6  1  0
  5 13  1  0
  6  7  1  0
  7  8  2  0
  8  9  1  0
  9 10  2  0
 10 11  1  0
 11 12  2  0
 12  7  1  0
 13 14  1  0
 14 15  1  1
 14  2  1  0
M  END
>  <TransFSScore>  (172)
0.237738

>  <SuCOS_Score>  (172)
0.58253

>  <FeatureStein>  (172)
0.517539

>  <SCORE.norm>  (172)
-1.04807

>  <Max_SuCOS_Score>  (172)
0.58253

>  <Cum_SuCOS_Score>  (172)
4.312522

>  <TransFSScore_50nM>  (172)
0.050104

>  <TransFSScore_1uM>  (172)
0.277518

>  <TransFSScore_10nM>  (172)
0.058972

>  <TransFSScore_200nM>  (172)
0.564358

>  <TETHERED ATOMS>  (172)
1,2,3,4,5,6,7,13,14

$$$$
OC1CCN(Cc2cnccn2)CC1F
     RDKit          3D

 15 16  0  0  0  0  0  0  0  0999 V2000
    9.0216   -6.3796   26.5027 O   0  0  0  0  0  0  0  0  0  0  0  0
    9.5475   -6.1175   25.1965 C   0  0  2  0  0  0  0  0  0  0  0  0
   10.8009   -5.2991   25.4001 C   0  0  0  0  0  0  0  0  0  0  0  0
   10.4142   -3.8498   25.6068 C   0  0  0  0  0  0  0  0  0  0  0  0
    9.9316   -3.3242   24.3416 N   0  0  0  0  0  0  0  0  0  0  0  0
    9.6397   -1.9235   24.3523 C   0  0  0  0  0  0  0  0  0  0  0  0
   10.9249   -1.1553   24.2042 C   0  0  0  0  0  0  0  0  0  0  0  0
   11.4007   -0.2792   25.1778 C   0  0  0  0  0  0  0  0  0  0  0  0
   12.5576    0.4062   25.0418 N   0  0  0  0  0  0  0  0  0  0  0  0
   13.2515    0.2264   23.9000 C   0  0  0  0  0  0  0  0  0  0  0  0
   12.8164   -0.6224   22.8976 C   0  0  0  0  0  0  0  0  0  0  0  0
   11.6626   -1.2925   23.0785 N   0  0  0  0  0  0  0  0  0  0  0  0
    8.9830   -4.1677   23.6125 C   0  0  0  0  0  0  0  0  0  0  0  0
    8.4887   -5.4076   24.3579 C   0  0  2  0  0  0  0  0  0  0  0  0
    7.4877   -4.9906   25.2032 F   0  0  0  0  0  0  0  0  0  0  0  0
  2  1  1  1
  2  3  1  0
  3  4  1  0
  4  5  1  0
  5  6  1  0
  5 13  1  0
  6  7  1  0
  7  8  2  0
  8  9  1  0
  9 10  2  0
 10 11  1  0
 11 12  2  0
 12  7  1  0
 13 14  1  0
 14 15  1  1
 14  2  1  0
M  END
>  <TransFSScore>  (173)
0.216806

>  <SuCOS_Score>  (173)
0.505981

>  <FeatureStein>  (173)
0.505237

>  <SCORE.norm>  (173)
-1.02509

>  <Max_SuCOS_Score>  (173)
0.505981

>  <Cum_SuCOS_Score>  (173)
4.041221

>  <TransFSScore_50nM>  (173)
0.012551

>  <TransFSScore_1uM>  (173)
0.244869

>  <TransFSScore_10nM>  (173)
0.050669

>  <TransFSScore_200nM>  (173)
0.559135

>  <TETHERED ATOMS>  (173)
1,2,3,4,5,6,7,13,14

$$$$
OC1CCN(Cc2ccncc2)CC1F
     RDKit          3D

 15 16  0  0  0  0  0  0  0  0999 V2000
    9.8482   -7.0433   25.5762 O   0  0  0  0  0  0  0  0  0  0  0  0
    9.7836   -5.6742   25.4250 C   0  0  1  0  0  0  0  0  0  0  0  0
    8.4166   -5.0898   25.2942 C   0  0  0  0  0  0  0  0  0  0  0  0
    8.5322   -4.1307   24.1291 C   0  0  0  0  0  0  0  0  0  0  0  0
    9.8078   -3.3432   24.1832 N   0  0  0  0  0  0  0  0  0  0  0  0
    9.8836   -2.1292   23.3616 C   0  0  0  0  0  0  0  0  0  0  0  0
   11.2279   -1.4847   23.2803 C   0  0  0  0  0  0  0  0  0  0  0  0
   11.5423   -0.3833   24.0886 C   0  0  0  0  0  0  0  0  0  0  0  0
   12.7933    0.1984   23.9639 C   0  0  0  0  0  0  0  0  0  0  0  0
   13.7300   -0.2382   23.0999 N   0  0  0  0  0  0  0  0  0  0  0  0
   13.4277   -1.3103   22.3428 C   0  0  0  0  0  0  0  0  0  0  0  0
   12.2044   -1.9593   22.3941 C   0  0  0  0  0  0  0  0  0  0  0  0
   10.5511   -3.3105   25.4938 C   0  0  0  0  0  0  0  0  0  0  0  0
   10.7832   -4.7364   26.0437 C   0  0  1  0  0  0  0  0  0  0  0  0
   10.5544   -4.7026   27.3870 F   0  0  0  0  0  0  0  0  0  0  0  0
  2  1  1  1
  2  3  1  0
  3  4  1  0
  4  5  1  0
  5  6  1  0
  5 13  1  0
  6  7  1  0
  7  8  2  0
  8  9  1  0
  9 10  2  0
 10 11  1  0
 11 12  2  0
 12  7  1  0
 13 14  1  0
 14 15  1  1
 14  2  1  0
M  END
>  <TransFSScore>  (174)
0.118342

>  <SuCOS_Score>  (174)
0.652247

>  <FeatureStein>  (174)
0.50695

>  <SCORE.norm>  (174)
-0.952884

>  <Max_SuCOS_Score>  (174)
0.652247

>  <Cum_SuCOS_Score>  (174)
4.495287

>  <TransFSScore_50nM>  (174)
0.068683

>  <TransFSScore_1uM>  (174)
0.151474

>  <TransFSScore_10nM>  (174)
0.005559

>  <TransFSScore_200nM>  (174)
0.24765

>  <TETHERED ATOMS>  (174)
1,2,3,4,5,6,7,13,14

$$$$
OC1CCN(Cc2ccncc2)CC1F
     RDKit          3D

 15 16  0  0  0  0  0  0  0  0999 V2000
    9.8201   -7.0701   25.5965 O   0  0  0  0  0  0  0  0  0  0  0  0
    9.7514   -5.7021   25.4373 C   0  0  1  0  0  0  0  0  0  0  0  0
    8.3835   -5.1242   25.2892 C   0  0  0  0  0  0  0  0  0  0  0  0
    8.5071   -4.1708   24.1203 C   0  0  0  0  0  0  0  0  0  0  0  0
    9.7788   -3.3777   24.1833 N   0  0  0  0  0  0  0  0  0  0  0  0
    9.8580   -2.1677   23.3561 C   0  0  0  0  0  0  0  0  0  0  0  0
   11.2057   -1.5316   23.2659 C   0  0  0  0  0  0  0  0  0  0  0  0
   11.5202   -0.4103   24.0464 C   0  0  0  0  0  0  0  0  0  0  0  0
   12.7746    0.1623   23.9139 C   0  0  0  0  0  0  0  0  0  0  0  0
   13.7144   -0.3013   23.0677 N   0  0  0  0  0  0  0  0  0  0  0  0
   13.4118   -1.3919   22.3377 C   0  0  0  0  0  0  0  0  0  0  0  0
   12.1854   -2.0340   22.3987 C   0  0  0  0  0  0  0  0  0  0  0  0
   10.5084   -3.3349   25.5013 C   0  0  0  0  0  0  0  0  0  0  0  0
   10.7407   -4.7568   26.0612 C   0  0  1  0  0  0  0  0  0  0  0  0
   10.4979   -4.7169   27.4018 F   0  0  0  0  0  0  0  0  0  0  0  0
  2  1  1  1
  2  3  1  0
  3  4  1  0
  4  5  1  0
  5  6  1  0
  5 13  1  0
  6  7  1  0
  7  8  2  0
  8  9  1  0
  9 10  2  0
 10 11  1  0
 11 12  2  0
 12  7  1  0
 13 14  1  0
 14 15  1  1
 14  2  1  0
M  END
>  <TransFSScore>  (175)
0.123073

>  <SuCOS_Score>  (175)
0.647896

>  <FeatureStein>  (175)
0.500202

>  <SCORE.norm>  (175)
-0.952574

>  <Max_SuCOS_Score>  (175)
0.647896

>  <Cum_SuCOS_Score>  (175)
4.471832

>  <TransFSScore_50nM>  (175)
0.076141

>  <TransFSScore_1uM>  (175)
0.159128

>  <TransFSScore_10nM>  (175)
0.005444

>  <TransFSScore_200nM>  (175)
0.25158

>  <TETHERED ATOMS>  (175)
1,2,3,4,5,6,7,13,14

$$$$
OC1CCN(Cc2ccncc2)CC1F
     RDKit          3D

 15 16  0  0  0  0  0  0  0  0999 V2000
    9.8340   -7.0911   25.5660 O   0  0  0  0  0  0  0  0  0  0  0  0
    9.7506   -5.7229   25.4154 C   0  0  1  0  0  0  0  0  0  0  0  0
    8.3753   -5.1561   25.2950 C   0  0  0  0  0  0  0  0  0  0  0  0
    8.4697   -4.1956   24.1292 C   0  0  0  0  0  0  0  0  0  0  0  0
    9.7354   -3.3918   24.1736 N   0  0  0  0  0  0  0  0  0  0  0  0
    9.7893   -2.1769   23.3516 C   0  0  0  0  0  0  0  0  0  0  0  0
   11.1359   -1.5469   23.2140 C   0  0  0  0  0  0  0  0  0  0  0  0
   12.0702   -2.0506   22.2982 C   0  0  0  0  0  0  0  0  0  0  0  0
   13.3160   -1.4501   22.2200 C   0  0  0  0  0  0  0  0  0  0  0  0
   13.6823   -0.4026   22.9835 N   0  0  0  0  0  0  0  0  0  0  0  0
   12.7711    0.0889   23.8450 C   0  0  0  0  0  0  0  0  0  0  0  0
   11.5008   -0.4433   23.9970 C   0  0  0  0  0  0  0  0  0  0  0  0
   10.4882   -3.3496   25.4785 C   0  0  0  0  0  0  0  0  0  0  0  0
   10.7428   -4.7723   26.0265 C   0  0  1  0  0  0  0  0  0  0  0  0
   10.5238   -4.7415   27.3715 F   0  0  0  0  0  0  0  0  0  0  0  0
  2  1  1  1
  2  3  1  0
  3  4  1  0
  4  5  1  0
  5  6  1  0
  5 13  1  0
  6  7  1  0
  7  8  2  0
  8  9  1  0
  9 10  2  0
 10 11  1  0
 11 12  2  0
 12  7  1  0
 13 14  1  0
 14 15  1  1
 14  2  1  0
M  END
>  <TransFSScore>  (176)
0.131706

>  <SuCOS_Score>  (176)
0.643665

>  <FeatureStein>  (176)
0.49653

>  <SCORE.norm>  (176)
-0.952056

>  <Max_SuCOS_Score>  (176)
0.643665

>  <Cum_SuCOS_Score>  (176)
4.468638

>  <TransFSScore_50nM>  (176)
0.088271

>  <TransFSScore_1uM>  (176)
0.159701

>  <TransFSScore_10nM>  (176)
0.005102

>  <TransFSScore_200nM>  (176)
0.273751

>  <TETHERED ATOMS>  (176)
1,2,3,4,5,6,7,13,14

$$$$
OC1CCN(Cc2ccncc2)CC1F
     RDKit          3D

 15 16  0  0  0  0  0  0  0  0999 V2000
    9.8626   -7.0477   25.6055 O   0  0  0  0  0  0  0  0  0  0  0  0
    9.7647   -5.6831   25.4328 C   0  0  1  0  0  0  0  0  0  0  0  0
    8.3865   -5.1389   25.2554 C   0  0  0  0  0  0  0  0  0  0  0  0
    8.5086   -4.1929   24.0803 C   0  0  0  0  0  0  0  0  0  0  0  0
    9.7600   -3.3695   24.1586 N   0  0  0  0  0  0  0  0  0  0  0  0
    9.8256   -2.1652   23.3220 C   0  0  0  0  0  0  0  0  0  0  0  0
   11.1559   -1.4902   23.2613 C   0  0  0  0  0  0  0  0  0  0  0  0
   12.1534   -1.9537   22.3921 C   0  0  0  0  0  0  0  0  0  0  0  0
   13.3810   -1.3120   22.3850 C   0  0  0  0  0  0  0  0  0  0  0  0
   13.6715   -0.2609   23.1756 N   0  0  0  0  0  0  0  0  0  0  0  0
   12.7004    0.1918   23.9918 C   0  0  0  0  0  0  0  0  0  0  0  0
   11.4422   -0.3831   24.0717 C   0  0  0  0  0  0  0  0  0  0  0  0
   10.4647   -3.2982   25.4889 C   0  0  0  0  0  0  0  0  0  0  0  0
   10.7202   -4.7094   26.0656 C   0  0  1  0  0  0  0  0  0  0  0  0
   10.4526   -4.6636   27.4013 F   0  0  0  0  0  0  0  0  0  0  0  0
  2  1  1  1
  2  3  1  0
  3  4  1  0
  4  5  1  0
  5  6  1  0
  5 13  1  0
  6  7  1  0
  7  8  2  0
  8  9  1  0
  9 10  2  0
 10 11  1  0
 11 12  2  0
 12  7  1  0
 13 14  1  0
 14 15  1  1
 14  2  1  0
M  END
>  <TransFSScore>  (177)
0.123249

>  <SuCOS_Score>  (177)
0.653462

>  <FeatureStein>  (177)
0.514918

>  <SCORE.norm>  (177)
-0.951948

>  <Max_SuCOS_Score>  (177)
0.653462

>  <Cum_SuCOS_Score>  (177)
4.537336

>  <TransFSScore_50nM>  (177)
0.072597

>  <TransFSScore_1uM>  (177)
0.158231

>  <TransFSScore_10nM>  (177)
0.005607

>  <TransFSScore_200nM>  (177)
0.25656

>  <TETHERED ATOMS>  (177)
1,2,3,4,5,6,7,13,14

$$$$
OC1CCN(Cc2ccncc2)CC1F
     RDKit          3D

 15 16  0  0  0  0  0  0  0  0999 V2000
    9.8198   -7.0505   25.5416 O   0  0  0  0  0  0  0  0  0  0  0  0
    9.7509   -5.6794   25.4119 C   0  0  1  0  0  0  0  0  0  0  0  0
    8.3837   -5.0996   25.2643 C   0  0  0  0  0  0  0  0  0  0  0  0
    8.5166   -4.1207   24.1177 C   0  0  0  0  0  0  0  0  0  0  0  0
    9.7867   -3.3280   24.2094 N   0  0  0  0  0  0  0  0  0  0  0  0
    9.8719   -2.1001   23.4097 C   0  0  0  0  0  0  0  0  0  0  0  0
   11.2249   -1.4745   23.3251 C   0  0  0  0  0  0  0  0  0  0  0  0
   11.5754   -0.4128   24.1708 C   0  0  0  0  0  0  0  0  0  0  0  0
   12.8331    0.1534   24.0423 C   0  0  0  0  0  0  0  0  0  0  0  0
   13.7433   -0.2619   23.1404 N   0  0  0  0  0  0  0  0  0  0  0  0
   13.4065   -1.2966   22.3467 C   0  0  0  0  0  0  0  0  0  0  0  0
   12.1738   -1.9275   22.3985 C   0  0  0  0  0  0  0  0  0  0  0  0
   10.5045   -3.3134   25.5345 C   0  0  0  0  0  0  0  0  0  0  0  0
   10.7335   -4.7470   26.0652 C   0  0  1  0  0  0  0  0  0  0  0  0
   10.4787   -4.7367   27.4041 F   0  0  0  0  0  0  0  0  0  0  0  0
  2  1  1  1
  2  3  1  0
  3  4  1  0
  4  5  1  0
  5  6  1  0
  5 13  1  0
  6  7  1  0
  7  8  2  0
  8  9  1  0
  9 10  2  0
 10 11  1  0
 11 12  2  0
 12  7  1  0
 13 14  1  0
 14 15  1  1
 14  2  1  0
M  END
>  <TransFSScore>  (178)
0.119277

>  <SuCOS_Score>  (178)
0.661698

>  <FeatureStein>  (178)
0.517341

>  <SCORE.norm>  (178)
-0.951916

>  <Max_SuCOS_Score>  (178)
0.661698

>  <Cum_SuCOS_Score>  (178)
4.490849

>  <TransFSScore_50nM>  (178)
0.06392

>  <TransFSScore_1uM>  (178)
0.15596

>  <TransFSScore_10nM>  (178)
0.005464

>  <TransFSScore_200nM>  (178)
0.251765

>  <TETHERED ATOMS>  (178)
1,2,3,4,5,6,7,13,14

$$$$
OC1CCN(Cc2ccncc2)CC1F
     RDKit          3D

 15 16  0  0  0  0  0  0  0  0999 V2000
    9.8782   -6.8221   25.4414 O   0  0  0  0  0  0  0  0  0  0  0  0
    9.8191   -5.4594   25.2392 C   0  0  1  0  0  0  0  0  0  0  0  0
    8.4718   -4.8973   24.9295 C   0  0  0  0  0  0  0  0  0  0  0  0
    8.7150   -3.9736   23.7555 C   0  0  0  0  0  0  0  0  0  0  0  0
    9.9679   -3.1682   23.9336 N   0  0  0  0  0  0  0  0  0  0  0  0
   10.1288   -1.9795   23.0876 C   0  0  0  0  0  0  0  0  0  0  0  0
   11.4981   -1.3854   23.0586 C   0  0  0  0  0  0  0  0  0  0  0  0
   12.4800   -1.8949   22.1974 C   0  0  0  0  0  0  0  0  0  0  0  0
   13.7440   -1.3286   22.2199 C   0  0  0  0  0  0  0  0  0  0  0  0
   14.0843   -0.3094   23.0321 N   0  0  0  0  0  0  0  0  0  0  0  0
   13.1290    0.1885   23.8405 C   0  0  0  0  0  0  0  0  0  0  0  0
   11.8373   -0.3104   23.8915 C   0  0  0  0  0  0  0  0  0  0  0  0
   10.5510   -3.0848   25.3208 C   0  0  0  0  0  0  0  0  0  0  0  0
   10.7300   -4.4897   25.9403 C   0  0  1  0  0  0  0  0  0  0  0  0
   10.3439   -4.4169   27.2455 F   0  0  0  0  0  0  0  0  0  0  0  0
  2  1  1  1
  2  3  1  0
  3  4  1  0
  4  5  1  0
  5  6  1  0
  5 13  1  0
  6  7  1  0
  7  8  2  0
  8  9  1  0
  9 10  2  0
 10 11  1  0
 11 12  2  0
 12  7  1  0
 13 14  1  0
 14 15  1  1
 14  2  1  0
M  END
>  <TransFSScore>  (179)
0.114856

>  <SuCOS_Score>  (179)
0.600309

>  <FeatureStein>  (179)
0.504342

>  <SCORE.norm>  (179)
-0.948895

>  <Max_SuCOS_Score>  (179)
0.600309

>  <Cum_SuCOS_Score>  (179)
4.408477

>  <TransFSScore_50nM>  (179)
0.053488

>  <TransFSScore_1uM>  (179)
0.143756

>  <TransFSScore_10nM>  (179)
0.005295

>  <TransFSScore_200nM>  (179)
0.256886

>  <TETHERED ATOMS>  (179)
1,2,3,4,5,6,7,13,14

$$$$
OC1CCN(Cc2ccncc2)CC1F
     RDKit          3D

 15 16  0  0  0  0  0  0  0  0999 V2000
    9.8526   -6.9575   25.5201 O   0  0  0  0  0  0  0  0  0  0  0  0
    9.7768   -5.5911   25.3505 C   0  0  1  0  0  0  0  0  0  0  0  0
    8.4100   -5.0272   25.1486 C   0  0  0  0  0  0  0  0  0  0  0  0
    8.5678   -4.0791   23.9795 C   0  0  0  0  0  0  0  0  0  0  0  0
    9.8287   -3.2734   24.0849 N   0  0  0  0  0  0  0  0  0  0  0  0
    9.9271   -2.0673   23.2542 C   0  0  0  0  0  0  0  0  0  0  0  0
   11.2897   -1.4676   23.1414 C   0  0  0  0  0  0  0  0  0  0  0  0
   12.2194   -1.9737   22.2222 C   0  0  0  0  0  0  0  0  0  0  0  0
   13.4801   -1.4023   22.1673 C   0  0  0  0  0  0  0  0  0  0  0  0
   13.8651   -0.3811   22.9568 N   0  0  0  0  0  0  0  0  0  0  0  0
   12.9588    0.1135   23.8217 C   0  0  0  0  0  0  0  0  0  0  0  0
   11.6746   -0.3906   23.9516 C   0  0  0  0  0  0  0  0  0  0  0  0
   10.5085   -3.2164   25.4288 C   0  0  0  0  0  0  0  0  0  0  0  0
   10.7334   -4.6329   26.0051 C   0  0  1  0  0  0  0  0  0  0  0  0
   10.4406   -4.5879   27.3356 F   0  0  0  0  0  0  0  0  0  0  0  0
  2  1  1  1
  2  3  1  0
  3  4  1  0
  4  5  1  0
  5  6  1  0
  5 13  1  0
  6  7  1  0
  7  8  2  0
  8  9  1  0
  9 10  2  0
 10 11  1  0
 11 12  2  0
 12  7  1  0
 13 14  1  0
 14 15  1  1
 14  2  1  0
M  END
>  <TransFSScore>  (180)
0.120564

>  <SuCOS_Score>  (180)
0.63861

>  <FeatureStein>  (180)
0.513677

>  <SCORE.norm>  (180)
-0.946422

>  <Max_SuCOS_Score>  (180)
0.63861

>  <Cum_SuCOS_Score>  (180)
4.478274

>  <TransFSScore_50nM>  (180)
0.069275

>  <TransFSScore_1uM>  (180)
0.150682

>  <TransFSScore_10nM>  (180)
0.004951

>  <TransFSScore_200nM>  (180)
0.257347

>  <TETHERED ATOMS>  (180)
1,2,3,4,5,6,7,13,14

$$$$
OC1CCN(Cc2ccncc2)CC1F
     RDKit          3D

 15 16  0  0  0  0  0  0  0  0999 V2000
    9.8365   -6.9089   25.3714 O   0  0  0  0  0  0  0  0  0  0  0  0
    9.7756   -5.5380   25.2355 C   0  0  1  0  0  0  0  0  0  0  0  0
    8.4206   -4.9591   24.9991 C   0  0  0  0  0  0  0  0  0  0  0  0
    8.6270   -3.9817   23.8621 C   0  0  0  0  0  0  0  0  0  0  0  0
    9.8882   -3.1883   24.0346 N   0  0  0  0  0  0  0  0  0  0  0  0
   10.0245   -1.9615   23.2402 C   0  0  0  0  0  0  0  0  0  0  0  0
   11.4067   -1.4068   23.1366 C   0  0  0  0  0  0  0  0  0  0  0  0
   12.3396   -1.9725   22.2562 C   0  0  0  0  0  0  0  0  0  0  0  0
   13.6179   -1.4410   22.2092 C   0  0  0  0  0  0  0  0  0  0  0  0
   14.0172   -0.4044   22.9709 N   0  0  0  0  0  0  0  0  0  0  0  0
   13.1085    0.1471   23.7980 C   0  0  0  0  0  0  0  0  0  0  0  0
   11.8072   -0.3138   23.9171 C   0  0  0  0  0  0  0  0  0  0  0  0
   10.5189   -3.1715   25.4032 C   0  0  0  0  0  0  0  0  0  0  0  0
   10.7137   -4.6043   25.9496 C   0  0  1  0  0  0  0  0  0  0  0  0
   10.3729   -4.5922   27.2693 F   0  0  0  0  0  0  0  0  0  0  0  0
  2  1  1  1
  2  3  1  0
  3  4  1  0
  4  5  1  0
  5  6  1  0
  5 13  1  0
  6  7  1  0
  7  8  2  0
  8  9  1  0
  9 10  2  0
 10 11  1  0
 11 12  2  0
 12  7  1  0
 13 14  1  0
 14 15  1  1
 14  2  1  0
M  END
>  <TransFSScore>  (181)
0.121438

>  <SuCOS_Score>  (181)
0.629207

>  <FeatureStein>  (181)
0.52006

>  <SCORE.norm>  (181)
-0.946033

>  <Max_SuCOS_Score>  (181)
0.629207

>  <Cum_SuCOS_Score>  (181)
4.440979

>  <TransFSScore_50nM>  (181)
0.057287

>  <TransFSScore_1uM>  (181)
0.153453

>  <TransFSScore_10nM>  (181)
0.005023

>  <TransFSScore_200nM>  (181)
0.269988

>  <TETHERED ATOMS>  (181)
1,2,3,4,5,6,7,13,14

$$$$
OC1CCN(Cc2ccncc2)CC1F
     RDKit          3D

 15 16  0  0  0  0  0  0  0  0999 V2000
    9.8252   -7.0161   25.5468 O   0  0  0  0  0  0  0  0  0  0  0  0
    9.7607   -5.6458   25.4065 C   0  0  1  0  0  0  0  0  0  0  0  0
    8.3926   -5.0571   25.3118 C   0  0  0  0  0  0  0  0  0  0  0  0
    8.4833   -4.0903   24.1509 C   0  0  0  0  0  0  0  0  0  0  0  0
    9.7619   -3.3064   24.1803 N   0  0  0  0  0  0  0  0  0  0  0  0
    9.8216   -2.0870   23.3654 C   0  0  0  0  0  0  0  0  0  0  0  0
   11.1760   -1.4791   23.2072 C   0  0  0  0  0  0  0  0  0  0  0  0
   12.0647   -1.9573   22.2341 C   0  0  0  0  0  0  0  0  0  0  0  0
   13.3200   -1.3796   22.1376 C   0  0  0  0  0  0  0  0  0  0  0  0
   13.7373   -0.3778   22.9355 N   0  0  0  0  0  0  0  0  0  0  0  0
   12.8696    0.0903   23.8530 C   0  0  0  0  0  0  0  0  0  0  0  0
   11.5940   -0.4222   24.0273 C   0  0  0  0  0  0  0  0  0  0  0  0
   10.5359   -3.2846   25.4732 C   0  0  0  0  0  0  0  0  0  0  0  0
   10.7771   -4.7147   26.0078 C   0  0  1  0  0  0  0  0  0  0  0  0
   10.5800   -4.6896   27.3563 F   0  0  0  0  0  0  0  0  0  0  0  0
  2  1  1  1
  2  3  1  0
  3  4  1  0
  4  5  1  0
  5  6  1  0
  5 13  1  0
  6  7  1  0
  7  8  2  0
  8  9  1  0
  9 10  2  0
 10 11  1  0
 11 12  2  0
 12  7  1  0
 13 14  1  0
 14 15  1  1
 14  2  1  0
M  END
>  <TransFSScore>  (182)
0.12868

>  <SuCOS_Score>  (182)
0.654751

>  <FeatureStein>  (182)
0.514563

>  <SCORE.norm>  (182)
-0.945739

>  <Max_SuCOS_Score>  (182)
0.654751

>  <Cum_SuCOS_Score>  (182)
4.502374

>  <TransFSScore_50nM>  (182)
0.077067

>  <TransFSScore_1uM>  (182)
0.159141

>  <TransFSScore_10nM>  (182)
0.005052

>  <TransFSScore_200nM>  (182)
0.273461

>  <TETHERED ATOMS>  (182)
1,2,3,4,5,6,7,13,14

$$$$
CC1CN(Cc2cnns2)CCC1O
     RDKit          3D

 14 15  0  0  0  0  0  0  0  0999 V2000
    7.8750   -2.8400   26.0100 C   0  0  0  0  0  0  0  0  0  0  0  0
    8.4226   -4.0973   25.3216 C   0  0  1  0  0  0  0  0  0  0  0  0
    8.9034   -3.8037   23.8919 C   0  0  0  0  0  0  0  0  0  0  0  0
   10.2494   -3.1706   23.9510 N   0  0  0  0  0  0  0  0  0  0  0  0
   10.6817   -2.3620   22.8032 C   0  0  0  0  0  0  0  0  0  0  0  0
   11.7815   -1.3870   23.0465 C   0  0  0  0  0  0  0  0  0  0  0  0
   11.8486   -0.3326   23.9606 C   0  0  0  0  0  0  0  0  0  0  0  0
   13.0255    0.3358   23.9538 N   0  0  0  0  0  0  0  0  0  0  0  0
   13.9400   -0.1945   23.1027 N   0  0  0  0  0  0  0  0  0  0  0  0
   13.3169   -1.5370   22.2150 S   0  0  0  0  0  0  0  0  0  0  0  0
   11.2798   -3.8286   24.7986 C   0  0  0  0  0  0  0  0  0  0  0  0
   10.7553   -5.1062   25.4087 C   0  0  0  0  0  0  0  0  0  0  0  0
    9.4559   -4.8768   26.1483 C   0  0  1  0  0  0  0  0  0  0  0  0
    9.7801   -4.1873   27.3441 O   0  0  0  0  0  0  0  0  0  0  0  0
  2  1  1  1
  2  3  1  0
  3  4  1  0
  4  5  1  0
  4 11  1  0
  5  6  1  0
  6  7  2  0
  7  8  1  0
  8  9  2  0
  9 10  1  0
 10  6  1  0
 11 12  1  0
 12 13  1  0
 13 14  1  1
 13  2  1  0
M  END
>  <TransFSScore>  (183)
0.112779

>  <SuCOS_Score>  (183)
0.615083

>  <FeatureStein>  (183)
0.536112

>  <SCORE.norm>  (183)
-1.02402

>  <Max_SuCOS_Score>  (183)
0.615083

>  <Cum_SuCOS_Score>  (183)
4.399517

>  <TransFSScore_50nM>  (183)
0.005719

>  <TransFSScore_1uM>  (183)
0.032647

>  <TransFSScore_10nM>  (183)
0.105667

>  <TransFSScore_200nM>  (183)
0.307082

>  <TETHERED ATOMS>  (183)
14,13,12,11,4,5,6,3,2

$$$$
CC1CN(Cc2cnns2)CCC1O
     RDKit          3D

 14 15  0  0  0  0  0  0  0  0999 V2000
    7.6123   -3.0045   25.6324 C   0  0  0  0  0  0  0  0  0  0  0  0
    8.3228   -4.2233   25.0286 C   0  0  1  0  0  0  0  0  0  0  0  0
    8.9110   -3.9147   23.6430 C   0  0  0  0  0  0  0  0  0  0  0  0
   10.1896   -3.1709   23.8112 N   0  0  0  0  0  0  0  0  0  0  0  0
   10.6612   -2.3485   22.6890 C   0  0  0  0  0  0  0  0  0  0  0  0
   11.7642   -1.3896   22.9780 C   0  0  0  0  0  0  0  0  0  0  0  0
   11.8238   -0.3616   23.9223 C   0  0  0  0  0  0  0  0  0  0  0  0
   13.0057    0.2972   23.9540 N   0  0  0  0  0  0  0  0  0  0  0  0
   13.9305   -0.2167   23.1039 N   0  0  0  0  0  0  0  0  0  0  0  0
   13.3124   -1.5289   22.1686 S   0  0  0  0  0  0  0  0  0  0  0  0
   11.1853   -3.7267   24.7666 C   0  0  0  0  0  0  0  0  0  0  0  0
   10.7111   -5.0331   25.3564 C   0  0  0  0  0  0  0  0  0  0  0  0
    9.3333   -4.9002   25.9665 C   0  0  1  0  0  0  0  0  0  0  0  0
    9.4859   -4.1662   27.1700 O   0  0  0  0  0  0  0  0  0  0  0  0
  2  1  1  1
  2  3  1  0
  3  4  1  0
  4  5  1  0
  4 11  1  0
  5  6  1  0
  6  7  2  0
  7  8  1  0
  8  9  2  0
  9 10  1  0
 10  6  1  0
 11 12  1  0
 12 13  1  0
 13 14  1  1
 13  2  1  0
M  END
>  <TransFSScore>  (184)
0.123328

>  <SuCOS_Score>  (184)
0.614659

>  <FeatureStein>  (184)
0.575845

>  <SCORE.norm>  (184)
-1.02266

>  <Max_SuCOS_Score>  (184)
0.614659

>  <Cum_SuCOS_Score>  (184)
4.477125

>  <TransFSScore_50nM>  (184)
0.003455

>  <TransFSScore_1uM>  (184)
0.041337

>  <TransFSScore_10nM>  (184)
0.109736

>  <TransFSScore_200nM>  (184)
0.338783

>  <TETHERED ATOMS>  (184)
14,13,12,11,4,5,6,3,2

$$$$
CC1CN(Cc2cnns2)CCC1O
     RDKit          3D

 14 15  0  0  0  0  0  0  0  0999 V2000
    7.9185   -2.7825   26.0308 C   0  0  0  0  0  0  0  0  0  0  0  0
    8.4200   -4.0647   25.3530 C   0  0  1  0  0  0  0  0  0  0  0  0
    8.8945   -3.8039   23.9149 C   0  0  0  0  0  0  0  0  0  0  0  0
   10.2599   -3.2118   23.9522 N   0  0  0  0  0  0  0  0  0  0  0  0
   10.7047   -2.4313   22.7899 C   0  0  0  0  0  0  0  0  0  0  0  0
   11.7919   -1.4402   23.0244 C   0  0  0  0  0  0  0  0  0  0  0  0
   11.8316   -0.3560   23.9048 C   0  0  0  0  0  0  0  0  0  0  0  0
   13.0035    0.3213   23.9011 N   0  0  0  0  0  0  0  0  0  0  0  0
   13.9399   -0.2292   23.0874 N   0  0  0  0  0  0  0  0  0  0  0  0
   13.3458   -1.6049   22.2311 S   0  0  0  0  0  0  0  0  0  0  0  0
   11.2785   -3.8906   24.7977 C   0  0  0  0  0  0  0  0  0  0  0  0
   10.7215   -5.1437   25.4294 C   0  0  0  0  0  0  0  0  0  0  0  0
    9.4376   -4.8652   26.1791 C   0  0  1  0  0  0  0  0  0  0  0  0
    9.7953   -4.1711   27.3627 O   0  0  0  0  0  0  0  0  0  0  0  0
  2  1  1  1
  2  3  1  0
  3  4  1  0
  4  5  1  0
  4 11  1  0
  5  6  1  0
  6  7  2  0
  7  8  1  0
  8  9  2  0
  9 10  1  0
 10  6  1  0
 11 12  1  0
 12 13  1  0
 13 14  1  1
 13  2  1  0
M  END
>  <TransFSScore>  (185)
0.103189

>  <SuCOS_Score>  (185)
0.60673

>  <FeatureStein>  (185)
0.526324

>  <SCORE.norm>  (185)
-1.02009

>  <Max_SuCOS_Score>  (185)
0.60673

>  <Cum_SuCOS_Score>  (185)
4.37366

>  <TransFSScore_50nM>  (185)
0.005689

>  <TransFSScore_1uM>  (185)
0.031673

>  <TransFSScore_10nM>  (185)
0.103702

>  <TransFSScore_200nM>  (185)
0.271691

>  <TETHERED ATOMS>  (185)
14,13,12,11,4,5,6,3,2

$$$$
CC1CN(Cc2cnns2)CCC1O
     RDKit          3D

 14 15  0  0  0  0  0  0  0  0999 V2000
    7.6458   -2.8990   25.6410 C   0  0  0  0  0  0  0  0  0  0  0  0
    8.3175   -4.1418   25.0417 C   0  0  1  0  0  0  0  0  0  0  0  0
    8.9066   -3.8594   23.6509 C   0  0  0  0  0  0  0  0  0  0  0  0
   10.2070   -3.1519   23.8071 N   0  0  0  0  0  0  0  0  0  0  0  0
   10.6959   -2.3508   22.6769 C   0  0  0  0  0  0  0  0  0  0  0  0
   11.7780   -1.3695   22.9694 C   0  0  0  0  0  0  0  0  0  0  0  0
   11.8050   -0.3269   23.8991 C   0  0  0  0  0  0  0  0  0  0  0  0
   12.9752    0.3520   23.9401 N   0  0  0  0  0  0  0  0  0  0  0  0
   13.9222   -0.1587   23.1129 N   0  0  0  0  0  0  0  0  0  0  0  0
   13.3414   -1.4946   22.1874 S   0  0  0  0  0  0  0  0  0  0  0  0
   11.1916   -3.7299   24.7608 C   0  0  0  0  0  0  0  0  0  0  0  0
   10.6832   -5.0181   25.3620 C   0  0  0  0  0  0  0  0  0  0  0  0
    9.3132   -4.8414   25.9786 C   0  0  1  0  0  0  0  0  0  0  0  0
    9.4938   -4.1042   27.1763 O   0  0  0  0  0  0  0  0  0  0  0  0
  2  1  1  1
  2  3  1  0
  3  4  1  0
  4  5  1  0
  4 11  1  0
  5  6  1  0
  6  7  2  0
  7  8  1  0
  8  9  2  0
  9 10  1  0
 10  6  1  0
 11 12  1  0
 12 13  1  0
 13 14  1  1
 13  2  1  0
M  END
>  <TransFSScore>  (186)
0.122135

>  <SuCOS_Score>  (186)
0.608514

>  <FeatureStein>  (186)
0.562874

>  <SCORE.norm>  (186)
-0.988015

>  <Max_SuCOS_Score>  (186)
0.608514

>  <Cum_SuCOS_Score>  (186)
4.488095

>  <TransFSScore_50nM>  (186)
0.003202

>  <TransFSScore_1uM>  (186)
0.041926

>  <TransFSScore_10nM>  (186)
0.110178

>  <TransFSScore_200nM>  (186)
0.333236

>  <TETHERED ATOMS>  (186)
14,13,12,11,4,5,6,3,2

$$$$
CC1CN(Cc2cnns2)CCC1O
     RDKit          3D

 14 15  0  0  0  0  0  0  0  0999 V2000
    7.6320   -2.9054   25.6616 C   0  0  0  0  0  0  0  0  0  0  0  0
    8.2940   -4.1468   25.0488 C   0  0  1  0  0  0  0  0  0  0  0  0
    8.8818   -3.8550   23.6593 C   0  0  0  0  0  0  0  0  0  0  0  0
   10.1872   -3.1575   23.8191 N   0  0  0  0  0  0  0  0  0  0  0  0
   10.6786   -2.3488   22.6955 C   0  0  0  0  0  0  0  0  0  0  0  0
   11.7777   -1.3878   22.9916 C   0  0  0  0  0  0  0  0  0  0  0  0
   11.8424   -0.3821   23.9593 C   0  0  0  0  0  0  0  0  0  0  0  0
   13.0192    0.2859   23.9900 N   0  0  0  0  0  0  0  0  0  0  0  0
   13.9359   -0.1997   23.1148 N   0  0  0  0  0  0  0  0  0  0  0  0
   13.3152   -1.4944   22.1573 S   0  0  0  0  0  0  0  0  0  0  0  0
   11.1702   -3.7510   24.7649 C   0  0  0  0  0  0  0  0  0  0  0  0
   10.6547   -5.0416   25.3550 C   0  0  0  0  0  0  0  0  0  0  0  0
    9.2874   -4.8619   25.9766 C   0  0  1  0  0  0  0  0  0  0  0  0
    9.4756   -4.1374   27.1808 O   0  0  0  0  0  0  0  0  0  0  0  0
  2  1  1  1
  2  3  1  0
  3  4  1  0
  4  5  1  0
  4 11  1  0
  5  6  1  0
  6  7  2  0
  7  8  1  0
  8  9  2  0
  9 10  1  0
 10  6  1  0
 11 12  1  0
 12 13  1  0
 13 14  1  1
 13  2  1  0
M  END
>  <TransFSScore>  (187)
0.123738

>  <SuCOS_Score>  (187)
0.61632

>  <FeatureStein>  (187)
0.573228

>  <SCORE.norm>  (187)
-0.983381

>  <Max_SuCOS_Score>  (187)
0.61632

>  <Cum_SuCOS_Score>  (187)
4.47057

>  <TransFSScore_50nM>  (187)
0.003544

>  <TransFSScore_1uM>  (187)
0.042844

>  <TransFSScore_10nM>  (187)
0.103439

>  <TransFSScore_200nM>  (187)
0.345125

>  <TETHERED ATOMS>  (187)
14,13,12,11,4,5,6,3,2

$$$$
CC1CN(CC2CCNCC2)CCC1O
     RDKit          3D

 15 16  0  0  0  0  0  0  0  0999 V2000
    8.0546   -5.8096   23.0400 C   0  0  0  0  0  0  0  0  0  0  0  0
    8.6513   -5.0225   24.2099 C   0  0  2  0  0  0  0  0  0  0  0  0
    9.1827   -3.6715   23.7264 C   0  0  0  0  0  0  0  0  0  0  0  0
   10.0558   -2.9738   24.7353 N   0  0  0  0  0  0  0  0  0  0  0  0
    9.6776   -1.5980   25.0729 C   0  0  0  0  0  0  0  0  0  0  0  0
   10.3654   -0.5992   24.1256 C   0  0  0  0  0  0  0  0  0  0  0  0
   10.4907   -0.8195   22.6099 C   0  0  0  0  0  0  0  0  0  0  0  0
   11.7557   -1.5989   22.2667 C   0  0  0  0  0  0  0  0  0  0  0  0
   12.9532   -0.8525   22.6258 N   0  0  0  0  0  0  0  0  0  0  0  0
   12.7914    0.1317   23.6893 C   0  0  0  0  0  0  0  0  0  0  0  0
   11.7683   -0.3062   24.7320 C   0  0  0  0  0  0  0  0  0  0  0  0
   10.3149   -3.7697   25.9719 C   0  0  0  0  0  0  0  0  0  0  0  0
   10.8334   -5.1030   25.5135 C   0  0  0  0  0  0  0  0  0  0  0  0
    9.6540   -5.8802   24.9853 C   0  0  1  0  0  0  0  0  0  0  0  0
    8.9759   -6.3702   26.1430 O   0  0  0  0  0  0  0  0  0  0  0  0
  2  1  1  6
  2  3  1  0
  3  4  1  0
  4  5  1  0
  4 12  1  0
  5  6  1  0
  6  7  1  0
  7  8  1  0
  8  9  1  0
  9 10  1  0
 10 11  1  0
 11  6  1  0
 12 13  1  0
 13 14  1  0
 14 15  1  1
 14  2  1  0
M  END
>  <TransFSScore>  (188)
0.116486

>  <SuCOS_Score>  (188)
0.52853

>  <FeatureStein>  (188)
0.49607

>  <SCORE.norm>  (188)
-0.754964

>  <Max_SuCOS_Score>  (188)
0.52853

>  <Cum_SuCOS_Score>  (188)
4.357875

>  <TransFSScore_50nM>  (188)
0.014067

>  <TransFSScore_1uM>  (188)
0.030039

>  <TransFSScore_10nM>  (188)
0.039061

>  <TransFSScore_200nM>  (188)
0.382779

>  <TETHERED ATOMS>  (188)
15,14,13,12,4,5,6,3,2

$$$$
CNC(=O)c1cccc(CN2CCC(O)CC2)c1
     RDKit          3D

 18 19  0  0  0  0  0  0  0  0999 V2000
    7.3005    2.4057   21.8782 C   0  0  0  0  0  0  0  0  0  0  0  0
    8.6126    1.9987   21.4329 N   0  0  0  0  0  0  0  0  0  0  0  0
    9.7041    2.1907   22.2540 C   0  0  0  0  0  0  0  0  0  0  0  0
   10.1381    3.2842   22.5892 O   0  0  0  0  0  0  0  0  0  0  0  0
   10.3751    0.9583   22.7344 C   0  0  0  0  0  0  0  0  0  0  0  0
   11.5157    1.0823   23.5311 C   0  0  0  0  0  0  0  0  0  0  0  0
   12.1468   -0.0577   24.0250 C   0  0  0  0  0  0  0  0  0  0  0  0
   11.6233   -1.3223   23.7493 C   0  0  0  0  0  0  0  0  0  0  0  0
   10.4568   -1.4635   22.9768 C   0  0  0  0  0  0  0  0  0  0  0  0
    9.8640   -2.8189   22.7477 C   0  0  0  0  0  0  0  0  0  0  0  0
    9.6774   -3.6427   23.9489 N   0  0  0  0  0  0  0  0  0  0  0  0
   10.9032   -3.9450   24.7600 C   0  0  0  0  0  0  0  0  0  0  0  0
   10.6679   -5.0958   25.7151 C   0  0  0  0  0  0  0  0  0  0  0  0
    9.3155   -4.8241   26.2788 C   0  0  0  0  0  0  0  0  0  0  0  0
    9.1674   -4.9552   27.6396 O   0  0  0  0  0  0  0  0  0  0  0  0
    8.1855   -5.0789   25.3217 C   0  0  0  0  0  0  0  0  0  0  0  0
    8.6121   -4.6949   23.8933 C   0  0  0  0  0  0  0  0  0  0  0  0
    9.8441   -0.3092   22.4567 C   0  0  0  0  0  0  0  0  0  0  0  0
  1  2  1  0
  2  3  1  0
  3  4  2  0
  3  5  1  0
  5  6  2  0
  6  7  1  0
  7  8  2  0
  8  9  1  0
  9 10  1  0
  9 18  2  0
 10 11  1  0
 11 12  1  0
 12 13  1  0
 13 14  1  0
 14 15  1  0
 14 16  1  0
 16 17  1  0
 17 11  1  0
 18  5  1  0
M  END
>  <TransFSScore>  (189)
0.195943

>  <SuCOS_Score>  (189)
0.574475

>  <FeatureStein>  (189)
0.524107

>  <SCORE.norm>  (189)
-0.764196

>  <Max_SuCOS_Score>  (189)
0.574475

>  <Cum_SuCOS_Score>  (189)
4.723595

>  <TransFSScore_50nM>  (189)
0.037255

>  <TransFSScore_1uM>  (189)
0.363331

>  <TransFSScore_10nM>  (189)
0.154774

>  <TransFSScore_200nM>  (189)
0.228411

>  <TETHERED ATOMS>  (189)
15,14,13,12,11,10,9,17,16

$$$$
COCC1(O)CCN(Cc2ccccc2)CC1
     RDKit          3D

 17 18  0  0  0  0  0  0  0  0999 V2000
    7.1720   -2.3413   28.3545 C   0  0  0  0  0  0  0  0  0  0  0  0
    8.0528   -3.4332   28.1283 O   0  0  0  0  0  0  0  0  0  0  0  0
    7.8698   -4.0438   26.8340 C   0  0  0  0  0  0  0  0  0  0  0  0
    8.9384   -5.2088   26.5636 C   0  0  0  0  0  0  0  0  0  0  0  0
    8.6722   -5.9587   27.6954 O   0  0  0  0  0  0  0  0  0  0  0  0
   10.3792   -4.7584   26.5953 C   0  0  0  0  0  0  0  0  0  0  0  0
   10.3911   -3.4751   25.8285 C   0  0  0  0  0  0  0  0  0  0  0  0
    9.9335   -3.6714   24.4622 N   0  0  0  0  0  0  0  0  0  0  0  0
    9.6696   -2.4073   23.8153 C   0  0  0  0  0  0  0  0  0  0  0  0
   10.9684   -1.7008   23.5039 C   0  0  0  0  0  0  0  0  0  0  0  0
   11.8095   -2.1696   22.4831 C   0  0  0  0  0  0  0  0  0  0  0  0
   13.0186   -1.5273   22.2084 C   0  0  0  0  0  0  0  0  0  0  0  0
   13.4033   -0.4138   22.9529 C   0  0  0  0  0  0  0  0  0  0  0  0
   12.5813    0.0590   23.9738 C   0  0  0  0  0  0  0  0  0  0  0  0
   11.3728   -0.5819   24.2500 C   0  0  0  0  0  0  0  0  0  0  0  0
    8.9461   -4.6964   24.1342 C   0  0  0  0  0  0  0  0  0  0  0  0
    8.6385   -5.7597   25.1988 C   0  0  0  0  0  0  0  0  0  0  0  0
  1  2  1  0
  2  3  1  0
  3  4  1  0
  4  5  1  0
  4  6  1  0
  6  7  1  0
  7  8  1  0
  8  9  1  0
  8 16  1  0
  9 10  1  0
 10 11  2  0
 11 12  1  0
 12 13  2  0
 13 14  1  0
 14 15  2  0
 15 10  1  0
 16 17  1  0
 17  4  1  0
M  END
>  <TransFSScore>  (190)
0.096418

>  <SuCOS_Score>  (190)
0.734152

>  <FeatureStein>  (190)
0.499103

>  <SCORE.norm>  (190)
-0.714391

>  <Max_SuCOS_Score>  (190)
0.734152

>  <Cum_SuCOS_Score>  (190)
4.83235

>  <TransFSScore_50nM>  (190)
0.017976

>  <TransFSScore_1uM>  (190)
0.271081

>  <TransFSScore_10nM>  (190)
0.041451

>  <TransFSScore_200nM>  (190)
0.055164

>  <TETHERED ATOMS>  (190)
5,4,6,7,8,9,10,16,17

$$$$
NCC1(O)CCN(Cc2ccncc2)CC1
     RDKit          3D

 16 17  0  0  0  0  0  0  0  0999 V2000
   10.3417   -6.0791   26.0455 N   0  0  0  0  0  0  0  0  0  0  0  0
   10.7293   -4.6301   26.0443 C   0  0  0  0  0  0  0  0  0  0  0  0
    9.5397   -3.7802   26.7027 C   0  0  0  0  0  0  0  0  0  0  0  0
    9.4097   -4.5792   27.8317 O   0  0  0  0  0  0  0  0  0  0  0  0
    8.2746   -3.7783   25.8828 C   0  0  0  0  0  0  0  0  0  0  0  0
    8.7424   -3.5768   24.4749 C   0  0  0  0  0  0  0  0  0  0  0  0
    9.4753   -2.3369   24.3386 N   0  0  0  0  0  0  0  0  0  0  0  0
   10.1368   -2.2190   23.0648 C   0  0  0  0  0  0  0  0  0  0  0  0
    9.9712   -0.8151   22.5210 C   0  0  0  0  0  0  0  0  0  0  0  0
   10.7556    0.2346   23.0237 C   0  0  0  0  0  0  0  0  0  0  0  0
   10.6435    1.5093   22.4798 C   0  0  0  0  0  0  0  0  0  0  0  0
    9.7895    1.7298   21.4686 N   0  0  0  0  0  0  0  0  0  0  0  0
    9.0240    0.7562   20.9505 C   0  0  0  0  0  0  0  0  0  0  0  0
    9.0980   -0.5375   21.4634 C   0  0  0  0  0  0  0  0  0  0  0  0
   10.1886   -1.7189   25.4511 C   0  0  0  0  0  0  0  0  0  0  0  0
   10.0437   -2.3710   26.8381 C   0  0  0  0  0  0  0  0  0  0  0  0
  1  2  1  0
  2  3  1  0
  3  4  1  0
  3  5  1  0
  5  6  1  0
  6  7  1  0
  7  8  1  0
  7 15  1  0
  8  9  1  0
  9 10  2  0
 10 11  1  0
 11 12  2  0
 12 13  1  0
 13 14  2  0
 14  9  1  0
 15 16  1  0
 16  3  1  0
M  END
>  <TransFSScore>  (191)
0.28286

>  <SuCOS_Score>  (191)
0.556168

>  <FeatureStein>  (191)
0.553761

>  <SCORE.norm>  (191)
-0.845379

>  <Max_SuCOS_Score>  (191)
0.556168

>  <Cum_SuCOS_Score>  (191)
3.953361

>  <TransFSScore_50nM>  (191)
0.196226

>  <TransFSScore_1uM>  (191)
0.143045

>  <TransFSScore_10nM>  (191)
0.037001

>  <TransFSScore_200nM>  (191)
0.755166

>  <TETHERED ATOMS>  (191)
4,3,5,6,7,8,9,15,16

$$$$
NCC1(O)CCN(Cc2ccncc2)CC1
     RDKit          3D

 16 17  0  0  0  0  0  0  0  0999 V2000
    8.0175   -6.3242   27.5555 N   0  0  0  0  0  0  0  0  0  0  0  0
    9.0130   -6.3321   26.4458 C   0  0  0  0  0  0  0  0  0  0  0  0
    9.4309   -4.8639   26.0964 C   0  0  0  0  0  0  0  0  0  0  0  0
    9.7668   -4.2823   27.3645 O   0  0  0  0  0  0  0  0  0  0  0  0
   10.6753   -4.8743   25.2224 C   0  0  0  0  0  0  0  0  0  0  0  0
   11.0211   -3.5094   24.6631 C   0  0  0  0  0  0  0  0  0  0  0  0
    9.8490   -2.8825   24.0051 N   0  0  0  0  0  0  0  0  0  0  0  0
   10.0815   -1.9530   22.8845 C   0  0  0  0  0  0  0  0  0  0  0  0
   11.4384   -1.3076   22.7864 C   0  0  0  0  0  0  0  0  0  0  0  0
   12.3806   -1.7328   21.8345 C   0  0  0  0  0  0  0  0  0  0  0  0
   13.6772   -1.2071   21.8383 C   0  0  0  0  0  0  0  0  0  0  0  0
   14.0219   -0.2867   22.7521 N   0  0  0  0  0  0  0  0  0  0  0  0
   13.1586    0.1626   23.6767 C   0  0  0  0  0  0  0  0  0  0  0  0
   11.8503   -0.3340   23.7102 C   0  0  0  0  0  0  0  0  0  0  0  0
    8.5587   -3.6244   24.0197 C   0  0  0  0  0  0  0  0  0  0  0  0
    8.2859   -4.0597   25.4649 C   0  0  0  0  0  0  0  0  0  0  0  0
  1  2  1  0
  2  3  1  0
  3  4  1  0
  3  5  1  0
  5  6  1  0
  6  7  1  0
  7  8  1  0
  7 15  1  0
  8  9  1  0
  9 10  2  0
 10 11  1  0
 11 12  2  0
 12 13  1  0
 13 14  2  0
 14  9  1  0
 15 16  1  0
 16  3  1  0
M  END
>  <TransFSScore>  (192)
0.279281

>  <SuCOS_Score>  (192)
0.678591

>  <FeatureStein>  (192)
0.532481

>  <SCORE.norm>  (192)
-0.839689

>  <Max_SuCOS_Score>  (192)
0.678591

>  <Cum_SuCOS_Score>  (192)
4.588721

>  <TransFSScore_50nM>  (192)
0.276442

>  <TransFSScore_1uM>  (192)
0.069633

>  <TransFSScore_10nM>  (192)
0.01674

>  <TransFSScore_200nM>  (192)
0.754308

>  <TETHERED ATOMS>  (192)
4,3,5,6,7,8,9,15,16

$$$$
NCC1(O)CCN(Cc2ccncc2)CC1
     RDKit          3D

 16 17  0  0  0  0  0  0  0  0999 V2000
    9.9564   -7.0806   25.9287 N   0  0  0  0  0  0  0  0  0  0  0  0
    9.0733   -6.3240   24.9917 C   0  0  0  0  0  0  0  0  0  0  0  0
    9.2209   -4.7946   25.2541 C   0  0  0  0  0  0  0  0  0  0  0  0
    8.7628   -4.5895   26.6004 O   0  0  0  0  0  0  0  0  0  0  0  0
   10.6746   -4.3631   25.1616 C   0  0  0  0  0  0  0  0  0  0  0  0
   10.8451   -2.8563   25.2221 C   0  0  0  0  0  0  0  0  0  0  0  0
    9.9724   -2.1757   24.2320 N   0  0  0  0  0  0  0  0  0  0  0  0
   10.4398   -0.8998   23.6475 C   0  0  0  0  0  0  0  0  0  0  0  0
   11.7607   -0.9437   22.9556 C   0  0  0  0  0  0  0  0  0  0  0  0
   11.9011   -1.6140   21.7324 C   0  0  0  0  0  0  0  0  0  0  0  0
   13.1531   -1.6659   21.1420 C   0  0  0  0  0  0  0  0  0  0  0  0
   14.2506   -1.1117   21.6895 N   0  0  0  0  0  0  0  0  0  0  0  0
   14.1018   -0.4391   22.8466 C   0  0  0  0  0  0  0  0  0  0  0  0
   12.8917   -0.3309   23.5125 C   0  0  0  0  0  0  0  0  0  0  0  0
    9.0827   -3.0120   23.3975 C   0  0  0  0  0  0  0  0  0  0  0  0
    8.3172   -3.9561   24.3311 C   0  0  0  0  0  0  0  0  0  0  0  0
  1  2  1  0
  2  3  1  0
  3  4  1  0
  3  5  1  0
  5  6  1  0
  6  7  1  0
  7  8  1  0
  7 15  1  0
  8  9  1  0
  9 10  2  0
 10 11  1  0
 11 12  2  0
 12 13  1  0
 13 14  2  0
 14  9  1  0
 15 16  1  0
 16  3  1  0
M  END
>  <TransFSScore>  (193)
0.168417

>  <SuCOS_Score>  (193)
0.5747

>  <FeatureStein>  (193)
0.515077

>  <SCORE.norm>  (193)
-0.832667

>  <Max_SuCOS_Score>  (193)
0.5747

>  <Cum_SuCOS_Score>  (193)
4.606442

>  <TransFSScore_50nM>  (193)
0.097243

>  <TransFSScore_1uM>  (193)
0.111686

>  <TransFSScore_10nM>  (193)
0.012139

>  <TransFSScore_200nM>  (193)
0.452601

>  <TETHERED ATOMS>  (193)
4,3,5,6,7,8,9,15,16

$$$$
NCC1(O)CCN(Cc2ccncc2)CC1
     RDKit          3D

 16 17  0  0  0  0  0  0  0  0999 V2000
    9.5549   -7.0627   26.1922 N   0  0  0  0  0  0  0  0  0  0  0  0
    8.5109   -6.0424   25.8771 C   0  0  0  0  0  0  0  0  0  0  0  0
    9.1783   -4.6423   25.7211 C   0  0  0  0  0  0  0  0  0  0  0  0
    9.6512   -4.2935   27.0322 O   0  0  0  0  0  0  0  0  0  0  0  0
   10.3650   -4.7062   24.7746 C   0  0  0  0  0  0  0  0  0  0  0  0
   10.9280   -3.3360   24.4452 C   0  0  0  0  0  0  0  0  0  0  0  0
    9.8617   -2.4137   23.9792 N   0  0  0  0  0  0  0  0  0  0  0  0
   10.2233   -1.3611   23.0048 C   0  0  0  0  0  0  0  0  0  0  0  0
   11.6422   -0.9017   23.0367 C   0  0  0  0  0  0  0  0  0  0  0  0
   12.5776   -1.4179   22.1291 C   0  0  0  0  0  0  0  0  0  0  0  0
   13.8938   -0.9952   22.2174 C   0  0  0  0  0  0  0  0  0  0  0  0
   14.3263   -0.1171   23.1411 N   0  0  0  0  0  0  0  0  0  0  0  0
   13.4157    0.4017   23.9868 C   0  0  0  0  0  0  0  0  0  0  0  0
   12.0777    0.0426   23.9765 C   0  0  0  0  0  0  0  0  0  0  0  0
    8.4726   -2.9199   23.9381 C   0  0  0  0  0  0  0  0  0  0  0  0
    8.1680   -3.5603   25.2968 C   0  0  0  0  0  0  0  0  0  0  0  0
  1  2  1  0
  2  3  1  0
  3  4  1  0
  3  5  1  0
  5  6  1  0
  6  7  1  0
  7  8  1  0
  7 15  1  0
  8  9  1  0
  9 10  2  0
 10 11  1  0
 11 12  2  0
 12 13  1  0
 13 14  2  0
 14  9  1  0
 15 16  1  0
 16  3  1  0
M  END
>  <TransFSScore>  (194)
0.2332

>  <SuCOS_Score>  (194)
0.632115

>  <FeatureStein>  (194)
0.49134

>  <SCORE.norm>  (194)
-0.802465

>  <Max_SuCOS_Score>  (194)
0.632115

>  <Cum_SuCOS_Score>  (194)
4.64591

>  <TransFSScore_50nM>  (194)
0.095187

>  <TransFSScore_1uM>  (194)
0.069804

>  <TransFSScore_10nM>  (194)
0.015105

>  <TransFSScore_200nM>  (194)
0.752704

>  <TETHERED ATOMS>  (194)
4,3,5,6,7,8,9,15,16

$$$$
NCC1(O)CCN(Cc2cccs2)CC1
     RDKit          3D

 15 16  0  0  0  0  0  0  0  0999 V2000
    9.1485   -5.4153   28.1562 N   0  0  0  0  0  0  0  0  0  0  0  0
    8.7153   -5.1726   26.7640 C   0  0  0  0  0  0  0  0  0  0  0  0
    9.5712   -5.8129   25.5424 C   0  0  0  0  0  0  0  0  0  0  0  0
    9.5719   -7.0895   26.0615 O   0  0  0  0  0  0  0  0  0  0  0  0
   10.9568   -5.2357   25.4113 C   0  0  0  0  0  0  0  0  0  0  0  0
   10.8039   -3.7450   25.4649 C   0  0  0  0  0  0  0  0  0  0  0  0
    9.6331   -3.2942   24.6791 N   0  0  0  0  0  0  0  0  0  0  0  0
    9.4844   -1.8542   24.4694 C   0  0  0  0  0  0  0  0  0  0  0  0
   10.7052   -1.1596   23.9805 C   0  0  0  0  0  0  0  0  0  0  0  0
   11.3583   -0.0682   24.5240 C   0  0  0  0  0  0  0  0  0  0  0  0
   12.4915    0.3238   23.7535 C   0  0  0  0  0  0  0  0  0  0  0  0
   12.6586   -0.4666   22.6392 C   0  0  0  0  0  0  0  0  0  0  0  0
   11.4522   -1.6699   22.5194 S   0  0  0  0  0  0  0  0  0  0  0  0
    9.0943   -4.2117   23.6376 C   0  0  0  0  0  0  0  0  0  0  0  0
    8.8065   -5.5999   24.2460 C   0  0  0  0  0  0  0  0  0  0  0  0
  1  2  1  0
  2  3  1  0
  3  4  1  0
  3  5  1  0
  5  6  1  0
  6  7  1  0
  7  8  1  0
  7 14  1  0
  8  9  1  0
  9 10  2  0
 10 11  1  0
 11 12  2  0
 12 13  1  0
 13  9  1  0
 14 15  1  0
 15  3  1  0
M  END
>  <TransFSScore>  (195)
0.110095

>  <SuCOS_Score>  (195)
0.698116

>  <FeatureStein>  (195)
0.528879

>  <SCORE.norm>  (195)
-0.93582

>  <Max_SuCOS_Score>  (195)
0.698116

>  <Cum_SuCOS_Score>  (195)
4.792552

>  <TransFSScore_50nM>  (195)
0.042454

>  <TransFSScore_1uM>  (195)
0.043801

>  <TransFSScore_10nM>  (195)
0.035893

>  <TransFSScore_200nM>  (195)
0.318233

>  <TETHERED ATOMS>  (195)
4,3,5,6,7,8,9,14,15

$$$$
NCC1(O)CCN(Cc2cccs2)CC1
     RDKit          3D

 15 16  0  0  0  0  0  0  0  0999 V2000
    9.1174   -5.3388   28.1840 N   0  0  0  0  0  0  0  0  0  0  0  0
    8.6358   -5.2182   26.7918 C   0  0  0  0  0  0  0  0  0  0  0  0
    9.5425   -5.8115   25.5831 C   0  0  0  0  0  0  0  0  0  0  0  0
    9.5541   -7.0999   26.0723 O   0  0  0  0  0  0  0  0  0  0  0  0
   10.9190   -5.2032   25.5091 C   0  0  0  0  0  0  0  0  0  0  0  0
   10.7330   -3.7177   25.5924 C   0  0  0  0  0  0  0  0  0  0  0  0
    9.5778   -3.2722   24.7809 N   0  0  0  0  0  0  0  0  0  0  0  0
    9.4052   -1.8310   24.6000 C   0  0  0  0  0  0  0  0  0  0  0  0
   10.6060   -1.1110   24.0985 C   0  0  0  0  0  0  0  0  0  0  0  0
   11.2230    0.0128   24.6177 C   0  0  0  0  0  0  0  0  0  0  0  0
   12.3467    0.4210   23.8416 C   0  0  0  0  0  0  0  0  0  0  0  0
   12.5424   -0.3903   22.7472 C   0  0  0  0  0  0  0  0  0  0  0  0
   11.3741   -1.6328   22.6526 S   0  0  0  0  0  0  0  0  0  0  0  0
    9.0910   -4.1754   23.7019 C   0  0  0  0  0  0  0  0  0  0  0  0
    8.8140   -5.5834   24.2687 C   0  0  0  0  0  0  0  0  0  0  0  0
  1  2  1  0
  2  3  1  0
  3  4  1  0
  3  5  1  0
  5  6  1  0
  6  7  1  0
  7  8  1  0
  7 14  1  0
  8  9  1  0
  9 10  2  0
 10 11  1  0
 11 12  2  0
 12 13  1  0
 13  9  1  0
 14 15  1  0
 15  3  1  0
M  END
>  <TransFSScore>  (196)
0.106825

>  <SuCOS_Score>  (196)
0.662181

>  <FeatureStein>  (196)
0.503499

>  <SCORE.norm>  (196)
-0.90248

>  <Max_SuCOS_Score>  (196)
0.662181

>  <Cum_SuCOS_Score>  (196)
4.676554

>  <TransFSScore_50nM>  (196)
0.041177

>  <TransFSScore_1uM>  (196)
0.039892

>  <TransFSScore_10nM>  (196)
0.033629

>  <TransFSScore_200nM>  (196)
0.312602

>  <TETHERED ATOMS>  (196)
4,3,5,6,7,8,9,14,15

$$$$
NCC1(O)CCN(Cc2cccs2)CC1
     RDKit          3D

 15 16  0  0  0  0  0  0  0  0999 V2000
    9.2055   -5.3198   28.1904 N   0  0  0  0  0  0  0  0  0  0  0  0
    8.6797   -5.2611   26.8103 C   0  0  0  0  0  0  0  0  0  0  0  0
    9.5662   -5.8722   25.5955 C   0  0  0  0  0  0  0  0  0  0  0  0
    9.5699   -7.1572   26.0935 O   0  0  0  0  0  0  0  0  0  0  0  0
   10.9481   -5.2791   25.5016 C   0  0  0  0  0  0  0  0  0  0  0  0
   10.7786   -3.7911   25.5767 C   0  0  0  0  0  0  0  0  0  0  0  0
    9.6189   -3.3389   24.7753 N   0  0  0  0  0  0  0  0  0  0  0  0
    9.4594   -1.8973   24.5864 C   0  0  0  0  0  0  0  0  0  0  0  0
   10.6580   -1.1953   24.0547 C   0  0  0  0  0  0  0  0  0  0  0  0
   11.2954   -0.0718   24.5492 C   0  0  0  0  0  0  0  0  0  0  0  0
   12.4088    0.3158   23.7481 C   0  0  0  0  0  0  0  0  0  0  0  0
   12.5765   -0.5103   22.6602 C   0  0  0  0  0  0  0  0  0  0  0  0
   11.3944   -1.7419   22.6015 S   0  0  0  0  0  0  0  0  0  0  0  0
    9.1103   -4.2443   23.7083 C   0  0  0  0  0  0  0  0  0  0  0  0
    8.8250   -5.6453   24.2879 C   0  0  0  0  0  0  0  0  0  0  0  0
  1  2  1  0
  2  3  1  0
  3  4  1  0
  3  5  1  0
  5  6  1  0
  6  7  1  0
  7  8  1  0
  7 14  1  0
  8  9  1  0
  9 10  2  0
 10 11  1  0
 11 12  2  0
 12 13  1  0
 13  9  1  0
 14 15  1  0
 15  3  1  0
M  END
>  <TransFSScore>  (197)
0.096561

>  <SuCOS_Score>  (197)
0.676348

>  <FeatureStein>  (197)
0.503509

>  <SCORE.norm>  (197)
-0.895475

>  <Max_SuCOS_Score>  (197)
0.676348

>  <Cum_SuCOS_Score>  (197)
4.691456

>  <TransFSScore_50nM>  (197)
0.037501

>  <TransFSScore_1uM>  (197)
0.042697

>  <TransFSScore_10nM>  (197)
0.023918

>  <TransFSScore_200nM>  (197)
0.282127

>  <TETHERED ATOMS>  (197)
4,3,5,6,7,8,9,14,15

$$$$
NCC1(O)CCN(Cc2nnc[nH]2)CC1
     RDKit          3D

 15 16  0  0  0  0  0  0  0  0999 V2000
   10.1364   -6.6427   25.9612 N   0  0  0  0  0  0  0  0  0  0  0  0
   10.5937   -5.2142   25.9795 C   0  0  0  0  0  0  0  0  0  0  0  0
    9.4905   -4.2909   26.7301 C   0  0  0  0  0  0  0  0  0  0  0  0
    9.4218   -5.1171   27.8378 O   0  0  0  0  0  0  0  0  0  0  0  0
    8.1918   -4.2265   25.9709 C   0  0  0  0  0  0  0  0  0  0  0  0
    8.5373   -3.8723   24.5499 C   0  0  0  0  0  0  0  0  0  0  0  0
    9.5910   -2.8100   24.4851 N   0  0  0  0  0  0  0  0  0  0  0  0
    9.6868   -2.0542   23.2143 C   0  0  0  0  0  0  0  0  0  0  0  0
   11.0331   -1.5902   22.8488 C   0  0  0  0  0  0  0  0  0  0  0  0
   11.8964   -1.0538   23.6857 N   0  0  0  0  0  0  0  0  0  0  0  0
   13.0372   -0.7675   22.9919 N   0  0  0  0  0  0  0  0  0  0  0  0
   12.8348   -1.0756   21.7331 C   0  0  0  0  0  0  0  0  0  0  0  0
   11.5811   -1.5933   21.5892 N   0  0  0  0  0  0  0  0  0  0  0  0
    9.7861   -1.9833   25.7129 C   0  0  0  0  0  0  0  0  0  0  0  0
   10.0485   -2.8909   26.9277 C   0  0  0  0  0  0  0  0  0  0  0  0
  1  2  1  0
  2  3  1  0
  3  4  1  0
  3  5  1  0
  5  6  1  0
  6  7  1  0
  7  8  1  0
  7 14  1  0
  8  9  1  0
  9 10  2  0
 10 11  1  0
 11 12  2  0
 12 13  1  0
 13  9  1  0
 14 15  1  0
 15  3  1  0
M  END
>  <TransFSScore>  (198)
0.22394

>  <SuCOS_Score>  (198)
0.69668

>  <FeatureStein>  (198)
0.542181

>  <SCORE.norm>  (198)
-1.1965

>  <Max_SuCOS_Score>  (198)
0.69668

>  <Cum_SuCOS_Score>  (198)
4.102191

>  <TransFSScore_50nM>  (198)
0.045731

>  <TransFSScore_1uM>  (198)
0.054577

>  <TransFSScore_10nM>  (198)
0.018591

>  <TransFSScore_200nM>  (198)
0.77686

>  <TETHERED ATOMS>  (198)
4,3,5,6,7,8,9,14,15

$$$$
NCC1(O)CCN(Cc2nnc[nH]2)CC1
     RDKit          3D

 15 16  0  0  0  0  0  0  0  0999 V2000
   10.0098   -6.7806   25.9827 N   0  0  0  0  0  0  0  0  0  0  0  0
   10.5096   -5.3663   25.9832 C   0  0  0  0  0  0  0  0  0  0  0  0
    9.4283   -4.3988   26.7096 C   0  0  0  0  0  0  0  0  0  0  0  0
    9.3477   -5.1899   27.8419 O   0  0  0  0  0  0  0  0  0  0  0  0
    8.1281   -4.3311   25.9534 C   0  0  0  0  0  0  0  0  0  0  0  0
    8.4746   -4.0267   24.5211 C   0  0  0  0  0  0  0  0  0  0  0  0
    9.5493   -2.9883   24.4207 N   0  0  0  0  0  0  0  0  0  0  0  0
    9.6549   -2.2731   23.1273 C   0  0  0  0  0  0  0  0  0  0  0  0
   10.9881   -1.7495   22.7958 C   0  0  0  0  0  0  0  0  0  0  0  0
   11.8296   -1.2310   23.6655 N   0  0  0  0  0  0  0  0  0  0  0  0
   12.9647   -0.8739   22.9956 N   0  0  0  0  0  0  0  0  0  0  0  0
   12.7788   -1.1220   21.7210 C   0  0  0  0  0  0  0  0  0  0  0  0
   11.5427   -1.6699   21.5417 N   0  0  0  0  0  0  0  0  0  0  0  0
    9.7660   -2.1293   25.6223 C   0  0  0  0  0  0  0  0  0  0  0  0
   10.0152   -3.0051   26.8629 C   0  0  0  0  0  0  0  0  0  0  0  0
  1  2  1  0
  2  3  1  0
  3  4  1  0
  3  5  1  0
  5  6  1  0
  6  7  1  0
  7  8  1  0
  7 14  1  0
  8  9  1  0
  9 10  2  0
 10 11  1  0
 11 12  2  0
 12 13  1  0
 13  9  1  0
 14 15  1  0
 15  3  1  0
M  END
>  <TransFSScore>  (199)
0.222776

>  <SuCOS_Score>  (199)
0.676583

>  <FeatureStein>  (199)
0.530449

>  <SCORE.norm>  (199)
-1.18225

>  <Max_SuCOS_Score>  (199)
0.676583

>  <Cum_SuCOS_Score>  (199)
3.994644

>  <TransFSScore_50nM>  (199)
0.042311

>  <TransFSScore_1uM>  (199)
0.055477

>  <TransFSScore_10nM>  (199)
0.016544

>  <TransFSScore_200nM>  (199)
0.776774

>  <TETHERED ATOMS>  (199)
4,3,5,6,7,8,9,14,15

$$$$
NCC1(O)CCN(Cc2ncon2)CC1
     RDKit          3D

 15 16  0  0  0  0  0  0  0  0999 V2000
   10.1374   -6.6050   25.9326 N   0  0  0  0  0  0  0  0  0  0  0  0
   10.6847   -5.2101   26.0139 C   0  0  0  0  0  0  0  0  0  0  0  0
    9.4860   -4.1545   26.3154 C   0  0  0  0  0  0  0  0  0  0  0  0
    9.0396   -4.8645   27.4107 O   0  0  0  0  0  0  0  0  0  0  0  0
    8.4537   -4.0996   25.2191 C   0  0  0  0  0  0  0  0  0  0  0  0
    9.1978   -3.9135   23.9291 C   0  0  0  0  0  0  0  0  0  0  0  0
   10.2965   -2.9062   24.0586 N   0  0  0  0  0  0  0  0  0  0  0  0
   10.8113   -2.3197   22.7925 C   0  0  0  0  0  0  0  0  0  0  0  0
   12.1467   -1.6610   22.7761 C   0  0  0  0  0  0  0  0  0  0  0  0
   12.3905   -0.4641   23.3432 N   0  0  0  0  0  0  0  0  0  0  0  0
   13.7470   -0.1867   23.0050 O   0  0  0  0  0  0  0  0  0  0  0  0
   14.1574   -1.2393   22.2424 C   0  0  0  0  0  0  0  0  0  0  0  0
   13.2329   -2.1576   22.0680 N   0  0  0  0  0  0  0  0  0  0  0  0
   10.2107   -1.9686   25.2306 C   0  0  0  0  0  0  0  0  0  0  0  0
   10.0761   -2.7712   26.5398 C   0  0  0  0  0  0  0  0  0  0  0  0
  1  2  1  0
  2  3  1  0
  3  4  1  0
  3  5  1  0
  5  6  1  0
  6  7  1  0
  7  8  1  0
  7 14  1  0
  8  9  1  0
  9 10  2  0
 10 11  1  0
 11 12  1  0
 12 13  2  0
 13  9  1  0
 14 15  1  0
 15  3  1  0
M  END
>  <TransFSScore>  (200)
0.132588

>  <SuCOS_Score>  (200)
0.645995

>  <FeatureStein>  (200)
0.526757

>  <SCORE.norm>  (200)
-1.22243

>  <Max_SuCOS_Score>  (200)
0.645995

>  <Cum_SuCOS_Score>  (200)
3.960813

>  <TransFSScore_50nM>  (200)
0.021558

>  <TransFSScore_1uM>  (200)
0.129874

>  <TransFSScore_10nM>  (200)
0.019298

>  <TransFSScore_200nM>  (200)
0.359624

>  <TETHERED ATOMS>  (200)
4,3,5,6,7,8,9,14,15

$$$$
NCC1(O)CCN(Cc2ncon2)CC1
     RDKit          3D

 15 16  0  0  0  0  0  0  0  0999 V2000
   10.1213   -6.5450   26.0005 N   0  0  0  0  0  0  0  0  0  0  0  0
   10.6675   -5.1485   26.0552 C   0  0  0  0  0  0  0  0  0  0  0  0
    9.4696   -4.0893   26.3471 C   0  0  0  0  0  0  0  0  0  0  0  0
    9.0205   -4.7909   27.4467 O   0  0  0  0  0  0  0  0  0  0  0  0
    8.4392   -4.0410   25.2487 C   0  0  0  0  0  0  0  0  0  0  0  0
    9.1856   -3.8651   23.9587 C   0  0  0  0  0  0  0  0  0  0  0  0
   10.2853   -2.8582   24.0827 N   0  0  0  0  0  0  0  0  0  0  0  0
   10.8029   -2.2814   22.8133 C   0  0  0  0  0  0  0  0  0  0  0  0
   12.1483   -1.6437   22.7894 C   0  0  0  0  0  0  0  0  0  0  0  0
   12.4117   -0.4461   23.3461 N   0  0  0  0  0  0  0  0  0  0  0  0
   13.7717   -0.1926   23.0036 O   0  0  0  0  0  0  0  0  0  0  0  0
   14.1645   -1.2578   22.2492 C   0  0  0  0  0  0  0  0  0  0  0  0
   13.2256   -2.1631   22.0839 N   0  0  0  0  0  0  0  0  0  0  0  0
   10.1987   -1.9121   25.2479 C   0  0  0  0  0  0  0  0  0  0  0  0
   10.0610   -2.7052   26.5625 C   0  0  0  0  0  0  0  0  0  0  0  0
  1  2  1  0
  2  3  1  0
  3  4  1  0
  3  5  1  0
  5  6  1  0
  6  7  1  0
  7  8  1  0
  7 14  1  0
  8  9  1  0
  9 10  2  0
 10 11  1  0
 11 12  1  0
 12 13  2  0
 13  9  1  0
 14 15  1  0
 15  3  1  0
M  END
>  <TransFSScore>  (201)
0.132848

>  <SuCOS_Score>  (201)
0.656477

>  <FeatureStein>  (201)
0.53609

>  <SCORE.norm>  (201)
-1.14404

>  <Max_SuCOS_Score>  (201)
0.656477

>  <Cum_SuCOS_Score>  (201)
3.978117

>  <TransFSScore_50nM>  (201)
0.022539

>  <TransFSScore_1uM>  (201)
0.121945

>  <TransFSScore_10nM>  (201)
0.020997

>  <TransFSScore_200nM>  (201)
0.365911

>  <TETHERED ATOMS>  (201)
4,3,5,6,7,8,9,14,15

$$$$
NCC1(O)CCN(Cc2ncon2)CC1
     RDKit          3D

 15 16  0  0  0  0  0  0  0  0999 V2000
    9.9921   -6.8333   26.0193 N   0  0  0  0  0  0  0  0  0  0  0  0
   10.5298   -5.4331   26.0686 C   0  0  0  0  0  0  0  0  0  0  0  0
    9.4524   -4.4450   26.7773 C   0  0  0  0  0  0  0  0  0  0  0  0
    9.3457   -5.2455   27.8961 O   0  0  0  0  0  0  0  0  0  0  0  0
    8.1505   -4.3498   26.0252 C   0  0  0  0  0  0  0  0  0  0  0  0
    8.4917   -4.0444   24.5953 C   0  0  0  0  0  0  0  0  0  0  0  0
    9.5712   -3.0151   24.4864 N   0  0  0  0  0  0  0  0  0  0  0  0
    9.6969   -2.3238   23.1778 C   0  0  0  0  0  0  0  0  0  0  0  0
   10.9952   -1.7043   22.8084 C   0  0  0  0  0  0  0  0  0  0  0  0
   11.8487   -1.0761   23.6901 N   0  0  0  0  0  0  0  0  0  0  0  0
   12.8051   -0.5928   22.8918 C   0  0  0  0  0  0  0  0  0  0  0  0
   12.6614   -0.8424   21.5423 O   0  0  0  0  0  0  0  0  0  0  0  0
   11.4323   -1.5826   21.5057 N   0  0  0  0  0  0  0  0  0  0  0  0
    9.8095   -2.1653   25.7034 C   0  0  0  0  0  0  0  0  0  0  0  0
   10.0631   -3.0614   26.9320 C   0  0  0  0  0  0  0  0  0  0  0  0
  1  2  1  0
  2  3  1  0
  3  4  1  0
  3  5  1  0
  5  6  1  0
  6  7  1  0
  7  8  1  0
  7 14  1  0
  8  9  1  0
  9 10  1  0
 10 11  2  0
 11 12  1  0
 12 13  1  0
 13  9  2  0
 14 15  1  0
 15  3  1  0
M  END
>  <TransFSScore>  (202)
0.249458

>  <SuCOS_Score>  (202)
0.665207

>  <FeatureStein>  (202)
0.52146

>  <SCORE.norm>  (202)
-1.09864

>  <Max_SuCOS_Score>  (202)
0.665207

>  <Cum_SuCOS_Score>  (202)
3.923281

>  <TransFSScore_50nM>  (202)
0.03434

>  <TransFSScore_1uM>  (202)
0.248933

>  <TransFSScore_10nM>  (202)
0.028158

>  <TransFSScore_200nM>  (202)
0.686401

>  <TETHERED ATOMS>  (202)
4,3,5,6,7,8,9,14,15

$$$$
NCC1(O)CCN(CC2CC=CC2)CC1
     RDKit          3D

 15 16  0  0  0  0  0  0  0  0999 V2000
    8.9971   -5.2716   27.8544 N   0  0  0  0  0  0  0  0  0  0  0  0
    8.4616   -5.1572   26.4619 C   0  0  0  0  0  0  0  0  0  0  0  0
    9.5009   -5.8434   25.4555 C   0  0  0  0  0  0  0  0  0  0  0  0
    9.5501   -7.0692   26.1145 O   0  0  0  0  0  0  0  0  0  0  0  0
   10.8704   -5.2175   25.4192 C   0  0  0  0  0  0  0  0  0  0  0  0
   10.6143   -3.7449   25.4273 C   0  0  0  0  0  0  0  0  0  0  0  0
    9.7243   -3.3480   24.3715 N   0  0  0  0  0  0  0  0  0  0  0  0
    9.2626   -1.9877   24.4201 C   0  0  0  0  0  0  0  0  0  0  0  0
   10.1111   -1.0613   23.5423 C   0  0  0  0  0  0  0  0  0  0  0  0
   11.4884   -0.8079   24.2007 C   0  0  0  0  0  0  0  0  0  0  0  0
   12.4082   -0.6640   23.0369 C   0  0  0  0  0  0  0  0  0  0  0  0
   11.8473   -1.1049   21.9084 C   0  0  0  0  0  0  0  0  0  0  0  0
   10.4600   -1.6011   22.1397 C   0  0  0  0  0  0  0  0  0  0  0  0
    8.8752   -4.2691   23.6320 C   0  0  0  0  0  0  0  0  0  0  0  0
    8.8625   -5.7320   24.1026 C   0  0  0  0  0  0  0  0  0  0  0  0
  1  2  1  0
  2  3  1  0
  3  4  1  0
  3  5  1  0
  5  6  1  0
  6  7  1  0
  7  8  1  0
  7 14  1  0
  9  8  1  0
  9 10  1  0
 10 11  1  0
 11 12  2  0
 12 13  1  0
 13  9  1  0
 14 15  1  0
 15  3  1  0
M  END
>  <TransFSScore>  (203)
0.20643

>  <SuCOS_Score>  (203)
0.566339

>  <FeatureStein>  (203)
0.513132

>  <SCORE.norm>  (203)
-0.886533

>  <Max_SuCOS_Score>  (203)
0.566339

>  <Cum_SuCOS_Score>  (203)
3.923071

>  <TransFSScore_50nM>  (203)
0.058633

>  <TransFSScore_1uM>  (203)
0.061546

>  <TransFSScore_10nM>  (203)
0.040947

>  <TransFSScore_200nM>  (203)
0.664595

>  <TETHERED ATOMS>  (203)
4,3,5,6,7,8,9,14,15

$$$$
NCC1(O)CCN(CC2CC=CC2)CC1
     RDKit          3D

 15 16  0  0  0  0  0  0  0  0999 V2000
    9.9526   -7.2276   25.9957 N   0  0  0  0  0  0  0  0  0  0  0  0
    9.1057   -6.3484   25.1385 C   0  0  0  0  0  0  0  0  0  0  0  0
    9.3671   -4.8583   25.5130 C   0  0  0  0  0  0  0  0  0  0  0  0
    9.2263   -4.8218   26.9471 O   0  0  0  0  0  0  0  0  0  0  0  0
   10.7984   -4.4427   25.2210 C   0  0  0  0  0  0  0  0  0  0  0  0
   10.9046   -2.9355   25.2554 C   0  0  0  0  0  0  0  0  0  0  0  0
   10.1840   -2.4264   24.0588 N   0  0  0  0  0  0  0  0  0  0  0  0
   10.2744   -0.9456   23.9243 C   0  0  0  0  0  0  0  0  0  0  0  0
   10.7603   -0.6261   22.4984 C   0  0  0  0  0  0  0  0  0  0  0  0
    9.6617   -0.9814   21.4667 C   0  0  0  0  0  0  0  0  0  0  0  0
    8.9058    0.2960   21.3342 C   0  0  0  0  0  0  0  0  0  0  0  0
    9.6163    1.3323   21.7883 C   0  0  0  0  0  0  0  0  0  0  0  0
   10.9470    0.8971   22.3001 C   0  0  0  0  0  0  0  0  0  0  0  0
    8.8225   -2.9821   23.8000 C   0  0  0  0  0  0  0  0  0  0  0  0
    8.3303   -3.9197   24.8921 C   0  0  0  0  0  0  0  0  0  0  0  0
  1  2  1  0
  2  3  1  0
  3  4  1  0
  3  5  1  0
  5  6  1  0
  6  7  1  0
  7  8  1  0
  7 14  1  0
  9  8  1  0
  9 10  1  0
 10 11  1  0
 11 12  2  0
 12 13  1  0
 13  9  1  0
 14 15  1  0
 15  3  1  0
M  END
>  <TransFSScore>  (204)
0.111692

>  <SuCOS_Score>  (204)
0.487068

>  <FeatureStein>  (204)
0.495999

>  <SCORE.norm>  (204)
-0.727991

>  <Max_SuCOS_Score>  (204)
0.487068

>  <Cum_SuCOS_Score>  (204)
3.785564

>  <TransFSScore_50nM>  (204)
0.010845

>  <TransFSScore_1uM>  (204)
0.05083

>  <TransFSScore_10nM>  (204)
0.002707

>  <TransFSScore_200nM>  (204)
0.382386

>  <TETHERED ATOMS>  (204)
4,3,5,6,7,8,9,14,15

$$$$
NCC1(O)CCN(CC2CC=CC2)CC1
     RDKit          3D

 15 16  0  0  0  0  0  0  0  0999 V2000
   10.1567   -6.5286   26.0427 N   0  0  0  0  0  0  0  0  0  0  0  0
   10.5156   -5.0761   26.0639 C   0  0  0  0  0  0  0  0  0  0  0  0
    9.3970   -4.2841   26.8918 C   0  0  0  0  0  0  0  0  0  0  0  0
    9.5257   -5.0330   28.0587 O   0  0  0  0  0  0  0  0  0  0  0  0
    7.9953   -4.3991   26.3525 C   0  0  0  0  0  0  0  0  0  0  0  0
    8.1465   -4.2602   24.8718 C   0  0  0  0  0  0  0  0  0  0  0  0
    8.8510   -3.0604   24.5134 N   0  0  0  0  0  0  0  0  0  0  0  0
    9.2188   -2.9403   23.1291 C   0  0  0  0  0  0  0  0  0  0  0  0
    8.8899   -1.5536   22.5656 C   0  0  0  0  0  0  0  0  0  0  0  0
    9.5049   -1.3855   21.1555 C   0  0  0  0  0  0  0  0  0  0  0  0
    8.5270   -0.5073   20.4528 C   0  0  0  0  0  0  0  0  0  0  0  0
    7.3660   -0.4395   21.1087 C   0  0  0  0  0  0  0  0  0  0  0  0
    7.3909   -1.2523   22.3589 C   0  0  0  0  0  0  0  0  0  0  0  0
    9.6514   -2.2771   25.4419 C   0  0  0  0  0  0  0  0  0  0  0  0
    9.8316   -2.8488   26.8569 C   0  0  0  0  0  0  0  0  0  0  0  0
  1  2  1  0
  2  3  1  0
  3  4  1  0
  3  5  1  0
  5  6  1  0
  6  7  1  0
  7  8  1  0
  7 14  1  0
  9  8  1  0
  9 10  1  0
 10 11  1  0
 11 12  2  0
 12 13  1  0
 13  9  1  0
 14 15  1  0
 15  3  1  0
M  END
>  <TransFSScore>  (205)
0.190829

>  <SuCOS_Score>  (205)
0.43499

>  <FeatureStein>  (205)
0.522271

>  <SCORE.norm>  (205)
-0.723258

>  <Max_SuCOS_Score>  (205)
0.444348

>  <Cum_SuCOS_Score>  (205)
2.962876

>  <TransFSScore_50nM>  (205)
0.066484

>  <TransFSScore_1uM>  (205)
0.045949

>  <TransFSScore_10nM>  (205)
0.009197

>  <TransFSScore_200nM>  (205)
0.641684

>  <TETHERED ATOMS>  (205)
4,3,5,6,7,8,9,14,15

$$$$
NCC1(O)CCN(CC2CC=CC2)CC1
     RDKit          3D

 15 16  0  0  0  0  0  0  0  0999 V2000
    8.6100   -5.3477   27.4808 N   0  0  0  0  0  0  0  0  0  0  0  0
    9.4471   -4.3695   26.7184 C   0  0  0  0  0  0  0  0  0  0  0  0
   10.2222   -5.1541   25.5575 C   0  0  0  0  0  0  0  0  0  0  0  0
   10.6971   -6.1800   26.3707 O   0  0  0  0  0  0  0  0  0  0  0  0
   11.3738   -4.4089   24.9353 C   0  0  0  0  0  0  0  0  0  0  0  0
   10.8718   -3.0115   24.7625 C   0  0  0  0  0  0  0  0  0  0  0  0
    9.6383   -2.9704   24.0270 N   0  0  0  0  0  0  0  0  0  0  0  0
    8.9778   -1.6945   23.9834 C   0  0  0  0  0  0  0  0  0  0  0  0
    9.4184   -0.8605   22.7755 C   0  0  0  0  0  0  0  0  0  0  0  0
    8.9589   -1.5335   21.4599 C   0  0  0  0  0  0  0  0  0  0  0  0
    8.6892   -0.3798   20.5557 C   0  0  0  0  0  0  0  0  0  0  0  0
    8.6117    0.7685   21.2323 C   0  0  0  0  0  0  0  0  0  0  0  0
    8.8298    0.5633   22.6933 C   0  0  0  0  0  0  0  0  0  0  0  0
    8.7804   -4.1249   23.8091 C   0  0  0  0  0  0  0  0  0  0  0  0
    9.1810   -5.4305   24.5136 C   0  0  0  0  0  0  0  0  0  0  0  0
  1  2  1  0
  2  3  1  0
  3  4  1  0
  3  5  1  0
  5  6  1  0
  6  7  1  0
  7  8  1  0
  7 14  1  0
  9  8  1  0
  9 10  1  0
 10 11  1  0
 11 12  2  0
 12 13  1  0
 13  9  1  0
 14 15  1  0
 15  3  1  0
M  END
>  <TransFSScore>  (206)
0.221727

>  <SuCOS_Score>  (206)
0.423015

>  <FeatureStein>  (206)
0.507915

>  <SCORE.norm>  (206)
-0.716212

>  <Max_SuCOS_Score>  (206)
0.478772

>  <Cum_SuCOS_Score>  (206)
3.208032

>  <TransFSScore_50nM>  (206)
0.1496

>  <TransFSScore_1uM>  (206)
0.028928

>  <TransFSScore_10nM>  (206)
0.054063

>  <TransFSScore_200nM>  (206)
0.654319

>  <TETHERED ATOMS>  (206)
4,3,5,6,7,8,9,14,15

$$$$
NCC1(O)CCN(CC2CC23CC3)CC1
     RDKit          3D

 15 17  0  0  0  0  0  0  0  0999 V2000
   10.4022   -6.2797   26.0284 N   0  0  0  0  0  0  0  0  0  0  0  0
    9.4454   -5.7875   24.9832 C   0  0  0  0  0  0  0  0  0  0  0  0
    8.5342   -4.5919   25.5938 C   0  0  0  0  0  0  0  0  0  0  0  0
    7.8629   -5.4433   26.4543 O   0  0  0  0  0  0  0  0  0  0  0  0
    7.6193   -3.9654   24.5774 C   0  0  0  0  0  0  0  0  0  0  0  0
    8.4759   -3.5839   23.3974 C   0  0  0  0  0  0  0  0  0  0  0  0
    9.7970   -3.0396   23.8187 N   0  0  0  0  0  0  0  0  0  0  0  0
   10.5589   -2.3272   22.7754 C   0  0  0  0  0  0  0  0  0  0  0  0
   11.9397   -1.9243   23.1302 C   0  0  1  0  0  0  0  0  0  0  0  0
   12.8563   -1.2156   22.1108 C   0  0  0  0  0  0  0  0  0  0  0  0
   12.2640   -0.5029   23.2375 C   0  0  0  0  0  0  0  0  0  0  0  0
   11.5575    0.7571   23.4301 C   0  0  0  0  0  0  0  0  0  0  0  0
   12.7779    0.3793   24.2797 C   0  0  0  0  0  0  0  0  0  0  0  0
    9.8665   -2.4572   25.1926 C   0  0  0  0  0  0  0  0  0  0  0  0
    9.4367   -3.5298   26.2104 C   0  0  0  0  0  0  0  0  0  0  0  0
  1  2  1  0
  2  3  1  0
  3  4  1  0
  3  5  1  0
  5  6  1  0
  6  7  1  0
  7  8  1  0
  7 14  1  0
  9  8  1  6
  9 10  1  0
 10 11  1  0
 11 12  1  0
 11  9  1  0
 12 13  1  0
 13 11  1  0
 14 15  1  0
 15  3  1  0
M  END
>  <TransFSScore>  (207)
0.188447

>  <SuCOS_Score>  (207)
0.58408

>  <FeatureStein>  (207)
0.555695

>  <SCORE.norm>  (207)
-1.00566

>  <Max_SuCOS_Score>  (207)
0.600593

>  <Cum_SuCOS_Score>  (207)
5.062857

>  <TransFSScore_50nM>  (207)
0.017657

>  <TransFSScore_1uM>  (207)
0.062278

>  <TransFSScore_10nM>  (207)
0.024231

>  <TransFSScore_200nM>  (207)
0.649623

>  <TETHERED ATOMS>  (207)
4,3,5,6,7,8,9,14,15

$$$$
NCC1(O)CCN(CC2CC23CC3)CC1
     RDKit          3D

 15 17  0  0  0  0  0  0  0  0999 V2000
   10.2791   -6.4370   25.9823 N   0  0  0  0  0  0  0  0  0  0  0  0
    9.3590   -5.8729   24.9406 C   0  0  0  0  0  0  0  0  0  0  0  0
    8.4556   -4.6914   25.5891 C   0  0  0  0  0  0  0  0  0  0  0  0
    7.7911   -5.5627   26.4347 O   0  0  0  0  0  0  0  0  0  0  0  0
    7.5322   -4.0387   24.5971 C   0  0  0  0  0  0  0  0  0  0  0  0
    8.3782   -3.6295   23.4188 C   0  0  0  0  0  0  0  0  0  0  0  0
    9.7041   -3.0976   23.8407 N   0  0  0  0  0  0  0  0  0  0  0  0
   10.4572   -2.3609   22.8080 C   0  0  0  0  0  0  0  0  0  0  0  0
   11.8550   -2.0033   23.1444 C   0  0  1  0  0  0  0  0  0  0  0  0
   12.8026   -1.3909   22.0915 C   0  0  0  0  0  0  0  0  0  0  0  0
   12.2436   -0.5944   23.1783 C   0  0  0  0  0  0  0  0  0  0  0  0
   11.5953    0.7048   23.3035 C   0  0  0  0  0  0  0  0  0  0  0  0
   12.7974    0.3166   24.1743 C   0  0  0  0  0  0  0  0  0  0  0  0
    9.7876   -2.5494   25.2279 C   0  0  0  0  0  0  0  0  0  0  0  0
    9.3657   -3.6460   26.2230 C   0  0  0  0  0  0  0  0  0  0  0  0
  1  2  1  0
  2  3  1  0
  3  4  1  0
  3  5  1  0
  5  6  1  0
  6  7  1  0
  7  8  1  0
  7 14  1  0
  9  8  1  6
  9 10  1  0
 10 11  1  0
 11 12  1  0
 11  9  1  0
 12 13  1  0
 13 11  1  0
 14 15  1  0
 15  3  1  0
M  END
>  <TransFSScore>  (208)
0.186858

>  <SuCOS_Score>  (208)
0.577555

>  <FeatureStein>  (208)
0.546977

>  <SCORE.norm>  (208)
-1.00231

>  <Max_SuCOS_Score>  (208)
0.577555

>  <Cum_SuCOS_Score>  (208)
5.015314

>  <TransFSScore_50nM>  (208)
0.024803

>  <TransFSScore_1uM>  (208)
0.067882

>  <TransFSScore_10nM>  (208)
0.028297

>  <TransFSScore_200nM>  (208)
0.62645

>  <TETHERED ATOMS>  (208)
4,3,5,6,7,8,9,14,15

$$$$
NCC1(O)CCN(CC2CC23CC3)CC1
     RDKit          3D

 15 17  0  0  0  0  0  0  0  0999 V2000
   10.3241   -6.3930   26.0305 N   0  0  0  0  0  0  0  0  0  0  0  0
    9.3128   -5.9448   25.0174 C   0  0  0  0  0  0  0  0  0  0  0  0
    8.3640   -4.7965   25.6608 C   0  0  0  0  0  0  0  0  0  0  0  0
    7.7241   -5.6919   26.5003 O   0  0  0  0  0  0  0  0  0  0  0  0
    7.4257   -4.1748   24.6630 C   0  0  0  0  0  0  0  0  0  0  0  0
    8.2656   -3.7344   23.4915 C   0  0  0  0  0  0  0  0  0  0  0  0
    9.5691   -3.1574   23.9240 N   0  0  0  0  0  0  0  0  0  0  0  0
   10.3036   -2.3932   22.8979 C   0  0  0  0  0  0  0  0  0  0  0  0
   11.7108   -2.0542   23.2137 C   0  0  1  0  0  0  0  0  0  0  0  0
   12.6671   -1.5082   22.1324 C   0  0  0  0  0  0  0  0  0  0  0  0
   12.1317   -0.6545   23.1872 C   0  0  0  0  0  0  0  0  0  0  0  0
   11.5139    0.6634   23.2608 C   0  0  0  0  0  0  0  0  0  0  0  0
   12.7110    0.2841   24.1423 C   0  0  0  0  0  0  0  0  0  0  0  0
    9.6232   -2.6089   25.3125 C   0  0  0  0  0  0  0  0  0  0  0  0
    9.2324   -3.7212   26.3029 C   0  0  0  0  0  0  0  0  0  0  0  0
  1  2  1  0
  2  3  1  0
  3  4  1  0
  3  5  1  0
  5  6  1  0
  6  7  1  0
  7  8  1  0
  7 14  1  0
  9  8  1  6
  9 10  1  0
 10 11  1  0
 11 12  1  0
 11  9  1  0
 12 13  1  0
 13 11  1  0
 14 15  1  0
 15  3  1  0
M  END
>  <TransFSScore>  (209)
0.177592

>  <SuCOS_Score>  (209)
0.582323

>  <FeatureStein>  (209)
0.543013

>  <SCORE.norm>  (209)
-0.999895

>  <Max_SuCOS_Score>  (209)
0.582323

>  <Cum_SuCOS_Score>  (209)
4.972796

>  <TransFSScore_50nM>  (209)
0.030872

>  <TransFSScore_1uM>  (209)
0.069284

>  <TransFSScore_10nM>  (209)
0.019885

>  <TransFSScore_200nM>  (209)
0.590328

>  <TETHERED ATOMS>  (209)
4,3,5,6,7,8,9,14,15

$$$$
NCC1(O)CCN(CC2CC23CC3)CC1
     RDKit          3D

 15 17  0  0  0  0  0  0  0  0999 V2000
   10.0801   -6.7165   25.9442 N   0  0  0  0  0  0  0  0  0  0  0  0
   10.5187   -5.2832   25.8859 C   0  0  0  0  0  0  0  0  0  0  0  0
    9.5059   -4.3641   26.7590 C   0  0  0  0  0  0  0  0  0  0  0  0
    9.7130   -5.1014   27.9120 O   0  0  0  0  0  0  0  0  0  0  0  0
    8.0812   -4.4339   26.2816 C   0  0  0  0  0  0  0  0  0  0  0  0
    8.1027   -4.1425   24.8030 C   0  0  0  0  0  0  0  0  0  0  0  0
    9.0746   -3.0672   24.4595 N   0  0  0  0  0  0  0  0  0  0  0  0
    8.9272   -2.4754   23.1162 C   0  0  0  0  0  0  0  0  0  0  0  0
   10.1772   -2.0439   22.4480 C   0  0  1  0  0  0  0  0  0  0  0  0
   10.1857   -0.8781   21.4368 C   0  0  0  0  0  0  0  0  0  0  0  0
   10.7485   -0.7387   22.7755 C   0  0  0  0  0  0  0  0  0  0  0  0
   10.6674    0.2389   23.8532 C   0  0  0  0  0  0  0  0  0  0  0  0
   12.0157   -0.2539   23.3117 C   0  0  0  0  0  0  0  0  0  0  0  0
    9.4290   -2.1183   25.5576 C   0  0  0  0  0  0  0  0  0  0  0  0
    9.9919   -2.9196   26.7458 C   0  0  0  0  0  0  0  0  0  0  0  0
  1  2  1  0
  2  3  1  0
  3  4  1  0
  3  5  1  0
  5  6  1  0
  6  7  1  0
  7  8  1  0
  7 14  1  0
  9  8  1  1
  9 10  1  0
 10 11  1  0
 11 12  1  0
 11  9  1  0
 12 13  1  0
 13 11  1  0
 14 15  1  0
 15  3  1  0
M  END
>  <TransFSScore>  (210)
0.26487

>  <SuCOS_Score>  (210)
0.575227

>  <FeatureStein>  (210)
0.513452

>  <SCORE.norm>  (210)
-0.966185

>  <Max_SuCOS_Score>  (210)
0.575227

>  <Cum_SuCOS_Score>  (210)
4.273179

>  <TransFSScore_50nM>  (210)
0.091347

>  <TransFSScore_1uM>  (210)
0.066845

>  <TransFSScore_10nM>  (210)
0.037555

>  <TransFSScore_200nM>  (210)
0.863732

>  <TETHERED ATOMS>  (210)
4,3,5,6,7,8,9,14,15

$$$$
NCC1(O)CCN(Cc2cnoc2)CC1
     RDKit          3D

 15 16  0  0  0  0  0  0  0  0999 V2000
   10.5960   -6.0880   26.1254 N   0  0  0  0  0  0  0  0  0  0  0  0
    9.7036   -5.5652   25.0445 C   0  0  0  0  0  0  0  0  0  0  0  0
    8.8051   -4.3474   25.6075 C   0  0  0  0  0  0  0  0  0  0  0  0
    8.0099   -5.1564   26.4001 O   0  0  0  0  0  0  0  0  0  0  0  0
    7.9399   -3.6133   24.6134 C   0  0  0  0  0  0  0  0  0  0  0  0
    8.8095   -3.3715   23.4304 C   0  0  0  0  0  0  0  0  0  0  0  0
    9.9782   -2.5311   23.8170 N   0  0  0  0  0  0  0  0  0  0  0  0
   10.9931   -2.5089   22.7317 C   0  0  0  0  0  0  0  0  0  0  0  0
   12.0642   -1.5022   22.9981 C   0  0  0  0  0  0  0  0  0  0  0  0
   13.4287   -1.5045   22.5231 C   0  0  0  0  0  0  0  0  0  0  0  0
   14.0472   -0.3242   22.8850 N   0  0  0  0  0  0  0  0  0  0  0  0
   13.1138    0.4923   23.5951 O   0  0  0  0  0  0  0  0  0  0  0  0
   11.9486   -0.2447   23.6129 C   0  0  0  0  0  0  0  0  0  0  0  0
   10.6146   -2.6617   25.1811 C   0  0  0  0  0  0  0  0  0  0  0  0
    9.7647   -3.3743   26.2299 C   0  0  0  0  0  0  0  0  0  0  0  0
  1  2  1  0
  2  3  1  0
  3  4  1  0
  3  5  1  0
  5  6  1  0
  6  7  1  0
  7  8  1  0
  7 14  1  0
  8  9  1  0
  9 10  1  0
 10 11  2  0
 11 12  1  0
 12 13  1  0
 13  9  2  0
 14 15  1  0
 15  3  1  0
M  END
>  <TransFSScore>  (211)
0.139182

>  <SuCOS_Score>  (211)
0.557704

>  <FeatureStein>  (211)
0.569754

>  <SCORE.norm>  (211)
-0.804754

>  <Max_SuCOS_Score>  (211)
0.613276

>  <Cum_SuCOS_Score>  (211)
4.555216

>  <TransFSScore_50nM>  (211)
0.013704

>  <TransFSScore_1uM>  (211)
0.081886

>  <TransFSScore_10nM>  (211)
0.01132

>  <TransFSScore_200nM>  (211)
0.449816

>  <TETHERED ATOMS>  (211)
4,3,5,6,7,8,9,14,15

$$$$
NCC1(O)CCN(Cc2cnoc2)CC1
     RDKit          3D

 15 16  0  0  0  0  0  0  0  0999 V2000
   10.0497   -6.6669   25.8474 N   0  0  0  0  0  0  0  0  0  0  0  0
    9.5339   -5.7046   24.8246 C   0  0  0  0  0  0  0  0  0  0  0  0
    8.7318   -4.5040   25.5473 C   0  0  0  0  0  0  0  0  0  0  0  0
    7.8968   -5.3455   26.2614 O   0  0  0  0  0  0  0  0  0  0  0  0
    7.9016   -3.6029   24.6672 C   0  0  0  0  0  0  0  0  0  0  0  0
    8.7647   -3.2828   23.4981 C   0  0  0  0  0  0  0  0  0  0  0  0
    9.9953   -2.5728   23.9490 N   0  0  0  0  0  0  0  0  0  0  0  0
   10.9898   -2.4914   22.8477 C   0  0  0  0  0  0  0  0  0  0  0  0
   12.0759   -1.5131   23.1561 C   0  0  0  0  0  0  0  0  0  0  0  0
   13.3852   -1.4144   22.5533 C   0  0  0  0  0  0  0  0  0  0  0  0
   14.0296   -0.2887   23.0268 N   0  0  0  0  0  0  0  0  0  0  0  0
   13.1677    0.3914   23.9415 O   0  0  0  0  0  0  0  0  0  0  0  0
   12.0151   -0.3649   23.9629 C   0  0  0  0  0  0  0  0  0  0  0  0
   10.6453   -2.9040   25.2720 C   0  0  0  0  0  0  0  0  0  0  0  0
    9.7671   -3.6762   26.2530 C   0  0  0  0  0  0  0  0  0  0  0  0
  1  2  1  0
  2  3  1  0
  3  4  1  0
  3  5  1  0
  5  6  1  0
  6  7  1  0
  7  8  1  0
  7 14  1  0
  8  9  1  0
  9 10  1  0
 10 11  2  0
 11 12  1  0
 12 13  1  0
 13  9  2  0
 14 15  1  0
 15  3  1  0
M  END
>  <TransFSScore>  (212)
0.141963

>  <SuCOS_Score>  (212)
0.562566

>  <FeatureStein>  (212)
0.588605

>  <SCORE.norm>  (212)
-0.750556

>  <Max_SuCOS_Score>  (212)
0.572266

>  <Cum_SuCOS_Score>  (212)
4.440397

>  <TransFSScore_50nM>  (212)
0.017364

>  <TransFSScore_1uM>  (212)
0.097949

>  <TransFSScore_10nM>  (212)
0.027804

>  <TransFSScore_200nM>  (212)
0.424733

>  <TETHERED ATOMS>  (212)
4,3,5,6,7,8,9,14,15

$$$$
NCC1(O)CCN(CC2=CCCC2)CC1
     RDKit          3D

 15 16  0  0  0  0  0  0  0  0999 V2000
   10.1082   -6.6880   25.9992 N   0  0  0  0  0  0  0  0  0  0  0  0
   10.5738   -5.2676   26.1250 C   0  0  0  0  0  0  0  0  0  0  0  0
    9.4310   -4.3806   26.8578 C   0  0  0  0  0  0  0  0  0  0  0  0
    9.3991   -5.2036   27.9704 O   0  0  0  0  0  0  0  0  0  0  0  0
    8.1243   -4.3684   26.1139 C   0  0  0  0  0  0  0  0  0  0  0  0
    8.4337   -3.9716   24.6930 C   0  0  0  0  0  0  0  0  0  0  0  0
    9.4773   -2.9092   24.6206 N   0  0  0  0  0  0  0  0  0  0  0  0
    9.5919   -2.1914   23.3390 C   0  0  0  0  0  0  0  0  0  0  0  0
   10.9053   -1.5746   23.0637 C   0  0  0  0  0  0  0  0  0  0  0  0
   11.8027   -1.9559   22.1419 C   0  0  0  0  0  0  0  0  0  0  0  0
   12.9606   -1.0122   22.0546 C   0  0  0  0  0  0  0  0  0  0  0  0
   12.7916   -0.1607   23.3095 C   0  0  0  0  0  0  0  0  0  0  0  0
   11.3211   -0.2814   23.7053 C   0  0  0  0  0  0  0  0  0  0  0  0
    9.6352   -2.0569   25.8388 C   0  0  0  0  0  0  0  0  0  0  0  0
    9.9377   -2.9569   27.0490 C   0  0  0  0  0  0  0  0  0  0  0  0
  1  2  1  0
  2  3  1  0
  3  4  1  0
  3  5  1  0
  5  6  1  0
  6  7  1  0
  7  8  1  0
  7 14  1  0
  8  9  1  0
  9 10  2  0
 10 11  1  0
 11 12  1  0
 12 13  1  0
 13  9  1  0
 14 15  1  0
 15  3  1  0
M  END
>  <TransFSScore>  (213)
0.250656

>  <SuCOS_Score>  (213)
0.704437

>  <FeatureStein>  (213)
0.682355

>  <SCORE.norm>  (213)
-1.0263

>  <Max_SuCOS_Score>  (213)
0.704437

>  <Cum_SuCOS_Score>  (213)
4.337895

>  <TransFSScore_50nM>  (213)
0.045066

>  <TransFSScore_1uM>  (213)
0.064071

>  <TransFSScore_10nM>  (213)
0.035056

>  <TransFSScore_200nM>  (213)
0.85843

>  <TETHERED ATOMS>  (213)
4,3,5,6,7,8,9,14,15

$$$$
NCC1(O)CCN(CC2=CCCC2)CC1
     RDKit          3D

 15 16  0  0  0  0  0  0  0  0999 V2000
   10.1333   -6.6266   26.0218 N   0  0  0  0  0  0  0  0  0  0  0  0
   10.6089   -5.2113   26.1655 C   0  0  0  0  0  0  0  0  0  0  0  0
    9.4865   -4.3333   26.9395 C   0  0  0  0  0  0  0  0  0  0  0  0
    9.4871   -5.1676   28.0441 O   0  0  0  0  0  0  0  0  0  0  0  0
    8.1592   -4.3153   26.2332 C   0  0  0  0  0  0  0  0  0  0  0  0
    8.4276   -3.9037   24.8082 C   0  0  0  0  0  0  0  0  0  0  0  0
    9.4677   -2.8392   24.7170 N   0  0  0  0  0  0  0  0  0  0  0  0
    9.5450   -2.1083   23.4401 C   0  0  0  0  0  0  0  0  0  0  0  0
   10.8556   -1.5052   23.1237 C   0  0  0  0  0  0  0  0  0  0  0  0
   11.7245   -1.9023   22.1816 C   0  0  0  0  0  0  0  0  0  0  0  0
   12.8874   -0.9694   22.0544 C   0  0  0  0  0  0  0  0  0  0  0  0
   12.7595   -0.1053   23.3056 C   0  0  0  0  0  0  0  0  0  0  0  0
   11.2992   -0.2100   23.7420 C   0  0  0  0  0  0  0  0  0  0  0  0
    9.6592   -1.9991   25.9389 C   0  0  0  0  0  0  0  0  0  0  0  0
    9.9970   -2.9110   27.1307 C   0  0  0  0  0  0  0  0  0  0  0  0
  1  2  1  0
  2  3  1  0
  3  4  1  0
  3  5  1  0
  5  6  1  0
  6  7  1  0
  7  8  1  0
  7 14  1  0
  8  9  1  0
  9 10  2  0
 10 11  1  0
 11 12  1  0
 12 13  1  0
 13  9  1  0
 14 15  1  0
 15  3  1  0
M  END
>  <TransFSScore>  (214)
0.250544

>  <SuCOS_Score>  (214)
0.694023

>  <FeatureStein>  (214)
0.659854

>  <SCORE.norm>  (214)
-1.0205

>  <Max_SuCOS_Score>  (214)
0.694023

>  <Cum_SuCOS_Score>  (214)
4.332285

>  <TransFSScore_50nM>  (214)
0.049448

>  <TransFSScore_1uM>  (214)
0.063295

>  <TransFSScore_10nM>  (214)
0.037145

>  <TransFSScore_200nM>  (214)
0.852287

>  <TETHERED ATOMS>  (214)
4,3,5,6,7,8,9,14,15

$$$$
NCC1(O)CCN(CC2=CCCC2)CC1
     RDKit          3D

 15 16  0  0  0  0  0  0  0  0999 V2000
   10.0774   -6.7508   25.9712 N   0  0  0  0  0  0  0  0  0  0  0  0
   10.5431   -5.3292   26.0816 C   0  0  0  0  0  0  0  0  0  0  0  0
    9.4235   -4.4455   26.8530 C   0  0  0  0  0  0  0  0  0  0  0  0
    9.3934   -5.2977   27.9435 O   0  0  0  0  0  0  0  0  0  0  0  0
    8.1077   -4.3938   26.1272 C   0  0  0  0  0  0  0  0  0  0  0  0
    8.4047   -3.9633   24.7135 C   0  0  0  0  0  0  0  0  0  0  0  0
    9.4633   -2.9150   24.6558 N   0  0  0  0  0  0  0  0  0  0  0  0
    9.5722   -2.1645   23.3925 C   0  0  0  0  0  0  0  0  0  0  0  0
   10.8890   -1.5533   23.1202 C   0  0  0  0  0  0  0  0  0  0  0  0
   11.7856   -1.9366   22.1984 C   0  0  0  0  0  0  0  0  0  0  0  0
   12.9481   -0.9983   22.1148 C   0  0  0  0  0  0  0  0  0  0  0  0
   12.7818   -0.1492   23.3717 C   0  0  0  0  0  0  0  0  0  0  0  0
   11.3102   -0.2638   23.7655 C   0  0  0  0  0  0  0  0  0  0  0  0
    9.6498   -2.0983   25.8943 C   0  0  0  0  0  0  0  0  0  0  0  0
    9.9542   -3.0352   27.0757 C   0  0  0  0  0  0  0  0  0  0  0  0
  1  2  1  0
  2  3  1  0
  3  4  1  0
  3  5  1  0
  5  6  1  0
  6  7  1  0
  7  8  1  0
  7 14  1  0
  8  9  1  0
  9 10  2  0
 10 11  1  0
 11 12  1  0
 12 13  1  0
 13  9  1  0
 14 15  1  0
 15  3  1  0
M  END
>  <TransFSScore>  (215)
0.254285

>  <SuCOS_Score>  (215)
0.698327

>  <FeatureStein>  (215)
0.661306

>  <SCORE.norm>  (215)
-1.01119

>  <Max_SuCOS_Score>  (215)
0.698327

>  <Cum_SuCOS_Score>  (215)
4.332675

>  <TransFSScore_50nM>  (215)
0.047364

>  <TransFSScore_1uM>  (215)
0.068781

>  <TransFSScore_10nM>  (215)
0.036411

>  <TransFSScore_200nM>  (215)
0.864583

>  <TETHERED ATOMS>  (215)
4,3,5,6,7,8,9,14,15

$$$$
NCC1(O)CCN(CC2=CCCC2)CC1
     RDKit          3D

 15 16  0  0  0  0  0  0  0  0999 V2000
   10.0641   -6.6744   26.0559 N   0  0  0  0  0  0  0  0  0  0  0  0
   10.5432   -5.2550   26.1329 C   0  0  0  0  0  0  0  0  0  0  0  0
    9.4429   -4.3477   26.9048 C   0  0  0  0  0  0  0  0  0  0  0  0
    9.4227   -5.1794   28.0113 O   0  0  0  0  0  0  0  0  0  0  0  0
    8.1165   -4.2982   26.1983 C   0  0  0  0  0  0  0  0  0  0  0  0
    8.3952   -3.8965   24.7724 C   0  0  0  0  0  0  0  0  0  0  0  0
    9.4614   -2.8584   24.6791 N   0  0  0  0  0  0  0  0  0  0  0  0
    9.5569   -2.1324   23.4006 C   0  0  0  0  0  0  0  0  0  0  0  0
   10.8775   -1.5479   23.0912 C   0  0  0  0  0  0  0  0  0  0  0  0
   11.7505   -1.9641   22.1610 C   0  0  0  0  0  0  0  0  0  0  0  0
   12.9256   -1.0464   22.0363 C   0  0  0  0  0  0  0  0  0  0  0  0
   12.7963   -0.1692   23.2783 C   0  0  0  0  0  0  0  0  0  0  0  0
   11.3309   -0.2524   23.7017 C   0  0  0  0  0  0  0  0  0  0  0  0
    9.6737   -2.0207   25.8992 C   0  0  0  0  0  0  0  0  0  0  0  0
    9.9885   -2.9381   27.0930 C   0  0  0  0  0  0  0  0  0  0  0  0
  1  2  1  0
  2  3  1  0
  3  4  1  0
  3  5  1  0
  5  6  1  0
  6  7  1  0
  7  8  1  0
  7 14  1  0
  8  9  1  0
  9 10  2  0
 10 11  1  0
 11 12  1  0
 12 13  1  0
 13  9  1  0
 14 15  1  0
 15  3  1  0
M  END
>  <TransFSScore>  (216)
0.254104

>  <SuCOS_Score>  (216)
0.699504

>  <FeatureStein>  (216)
0.671486

>  <SCORE.norm>  (216)
-0.965814

>  <Max_SuCOS_Score>  (216)
0.699504

>  <Cum_SuCOS_Score>  (216)
4.318933

>  <TransFSScore_50nM>  (216)
0.051279

>  <TransFSScore_1uM>  (216)
0.062964

>  <TransFSScore_10nM>  (216)
0.033562

>  <TransFSScore_200nM>  (216)
0.86861

>  <TETHERED ATOMS>  (216)
4,3,5,6,7,8,9,14,15

$$$$
NCC1(O)CCN(CC2=CCCC2)CC1
     RDKit          3D

 15 16  0  0  0  0  0  0  0  0999 V2000
   10.1518   -6.5781   26.0440 N   0  0  0  0  0  0  0  0  0  0  0  0
   10.5919   -5.1659   26.2929 C   0  0  0  0  0  0  0  0  0  0  0  0
    9.4348   -4.3670   27.1007 C   0  0  0  0  0  0  0  0  0  0  0  0
    9.4362   -5.2719   28.1484 O   0  0  0  0  0  0  0  0  0  0  0  0
    8.1202   -4.3335   26.3716 C   0  0  0  0  0  0  0  0  0  0  0  0
    8.4037   -3.8230   24.9819 C   0  0  0  0  0  0  0  0  0  0  0  0
    9.4188   -2.7310   24.9805 N   0  0  0  0  0  0  0  0  0  0  0  0
    9.5009   -1.9162   23.7557 C   0  0  0  0  0  0  0  0  0  0  0  0
   10.7929   -1.2408   23.5191 C   0  0  0  0  0  0  0  0  0  0  0  0
   11.1917   -0.0582   24.0120 C   0  0  0  0  0  0  0  0  0  0  0  0
   12.6166    0.2459   23.6711 C   0  0  0  0  0  0  0  0  0  0  0  0
   12.9331   -0.7965   22.6026 C   0  0  0  0  0  0  0  0  0  0  0  0
   11.9223   -1.9245   22.8024 C   0  0  0  0  0  0  0  0  0  0  0  0
    9.5681   -1.9687   26.2581 C   0  0  0  0  0  0  0  0  0  0  0  0
    9.9068   -2.9489   27.3942 C   0  0  0  0  0  0  0  0  0  0  0  0
  1  2  1  0
  2  3  1  0
  3  4  1  0
  3  5  1  0
  5  6  1  0
  6  7  1  0
  7  8  1  0
  7 14  1  0
  8  9  1  0
  9 10  2  0
 10 11  1  0
 11 12  1  0
 12 13  1  0
 13  9  1  0
 14 15  1  0
 15  3  1  0
M  END
>  <TransFSScore>  (217)
0.268531

>  <SuCOS_Score>  (217)
0.669518

>  <FeatureStein>  (217)
0.552608

>  <SCORE.norm>  (217)
-0.950805

>  <Max_SuCOS_Score>  (217)
0.669518

>  <Cum_SuCOS_Score>  (217)
4.279715

>  <TransFSScore_50nM>  (217)
0.061967

>  <TransFSScore_1uM>  (217)
0.072205

>  <TransFSScore_10nM>  (217)
0.049528

>  <TransFSScore_200nM>  (217)
0.890425

>  <TETHERED ATOMS>  (217)
4,3,5,6,7,8,9,14,15

$$$$
NCC1(O)CCN(CC2=CCCC2)CC1
     RDKit          3D

 15 16  0  0  0  0  0  0  0  0999 V2000
   10.8029   -5.7984   26.0513 N   0  0  0  0  0  0  0  0  0  0  0  0
    9.8074   -5.4069   24.9998 C   0  0  0  0  0  0  0  0  0  0  0  0
    8.8293   -4.2493   25.5769 C   0  0  0  0  0  0  0  0  0  0  0  0
    8.3438   -5.0592   26.5892 O   0  0  0  0  0  0  0  0  0  0  0  0
    7.7582   -3.8408   24.6038 C   0  0  0  0  0  0  0  0  0  0  0  0
    8.4497   -3.5102   23.3058 C   0  0  0  0  0  0  0  0  0  0  0  0
    9.7380   -2.7916   23.5224 N   0  0  0  0  0  0  0  0  0  0  0  0
   10.3066   -2.1015   22.3513 C   0  0  0  0  0  0  0  0  0  0  0  0
   11.6484   -1.5140   22.5412 C   0  0  0  0  0  0  0  0  0  0  0  0
   12.8042   -1.9452   22.0134 C   0  0  0  0  0  0  0  0  0  0  0  0
   13.9426   -1.0213   22.3121 C   0  0  0  0  0  0  0  0  0  0  0  0
   13.3616   -0.1160   23.3944 C   0  0  0  0  0  0  0  0  0  0  0  0
   11.8437   -0.2008   23.2440 C   0  0  0  0  0  0  0  0  0  0  0  0
    9.8720   -2.0552   24.8167 C   0  0  0  0  0  0  0  0  0  0  0  0
    9.6592   -3.0377   25.9809 C   0  0  0  0  0  0  0  0  0  0  0  0
  1  2  1  0
  2  3  1  0
  3  4  1  0
  3  5  1  0
  5  6  1  0
  6  7  1  0
  7  8  1  0
  7 14  1  0
  8  9  1  0
  9 10  2  0
 10 11  1  0
 11 12  1  0
 12 13  1  0
 13  9  1  0
 14 15  1  0
 15  3  1  0
M  END
>  <TransFSScore>  (218)
0.170844

>  <SuCOS_Score>  (218)
0.50957

>  <FeatureStein>  (218)
0.531474

>  <SCORE.norm>  (218)
-0.838504

>  <Max_SuCOS_Score>  (218)
0.655112

>  <Cum_SuCOS_Score>  (218)
4.546331

>  <TransFSScore_50nM>  (218)
0.011758

>  <TransFSScore_1uM>  (218)
0.066949

>  <TransFSScore_10nM>  (218)
0.015099

>  <TransFSScore_200nM>  (218)
0.589571

>  <TETHERED ATOMS>  (218)
4,3,5,6,7,8,9,14,15

$$$$
NCC1(O)CCN(CC2=CCCC2)CC1
     RDKit          3D

 15 16  0  0  0  0  0  0  0  0999 V2000
   10.7261   -5.8635   26.0909 N   0  0  0  0  0  0  0  0  0  0  0  0
    9.7684   -5.4576   25.0101 C   0  0  0  0  0  0  0  0  0  0  0  0
    8.7459   -4.3349   25.5790 C   0  0  0  0  0  0  0  0  0  0  0  0
    8.2635   -5.1693   26.5727 O   0  0  0  0  0  0  0  0  0  0  0  0
    7.6835   -3.9464   24.5884 C   0  0  0  0  0  0  0  0  0  0  0  0
    8.3913   -3.5819   23.3084 C   0  0  0  0  0  0  0  0  0  0  0  0
    9.6537   -2.8293   23.5589 N   0  0  0  0  0  0  0  0  0  0  0  0
   10.2259   -2.1104   22.4070 C   0  0  0  0  0  0  0  0  0  0  0  0
   11.5404   -1.4764   22.6343 C   0  0  0  0  0  0  0  0  0  0  0  0
   12.7270   -1.8748   22.1508 C   0  0  0  0  0  0  0  0  0  0  0  0
   13.8236   -0.9102   22.4759 C   0  0  0  0  0  0  0  0  0  0  0  0
   13.1769   -0.0126   23.5269 C   0  0  0  0  0  0  0  0  0  0  0  0
   11.6685   -0.1496   23.3269 C   0  0  0  0  0  0  0  0  0  0  0  0
    9.7402   -2.1036   24.8633 C   0  0  0  0  0  0  0  0  0  0  0  0
    9.5323   -3.1046   26.0126 C   0  0  0  0  0  0  0  0  0  0  0  0
  1  2  1  0
  2  3  1  0
  3  4  1  0
  3  5  1  0
  5  6  1  0
  6  7  1  0
  7  8  1  0
  7 14  1  0
  8  9  1  0
  9 10  2  0
 10 11  1  0
 11 12  1  0
 12 13  1  0
 13  9  1  0
 14 15  1  0
 15  3  1  0
M  END
>  <TransFSScore>  (219)
0.180923

>  <SuCOS_Score>  (219)
0.516167

>  <FeatureStein>  (219)
0.546962

>  <SCORE.norm>  (219)
-0.83793

>  <Max_SuCOS_Score>  (219)
0.6535

>  <Cum_SuCOS_Score>  (219)
4.603999

>  <TransFSScore_50nM>  (219)
0.011294

>  <TransFSScore_1uM>  (219)
0.066988

>  <TransFSScore_10nM>  (219)
0.018103

>  <TransFSScore_200nM>  (219)
0.627308

>  <TETHERED ATOMS>  (219)
4,3,5,6,7,8,9,14,15

$$$$
NCC1(O)CCN(CC2=CCCC2)CC1
     RDKit          3D

 15 16  0  0  0  0  0  0  0  0999 V2000
   10.7672   -5.8731   26.0134 N   0  0  0  0  0  0  0  0  0  0  0  0
    9.7356   -5.5055   24.9883 C   0  0  0  0  0  0  0  0  0  0  0  0
    8.7492   -4.3672   25.5892 C   0  0  0  0  0  0  0  0  0  0  0  0
    8.2706   -5.2009   26.5854 O   0  0  0  0  0  0  0  0  0  0  0  0
    7.6744   -3.9472   24.6252 C   0  0  0  0  0  0  0  0  0  0  0  0
    8.3624   -3.5854   23.3337 C   0  0  0  0  0  0  0  0  0  0  0  0
    9.6454   -2.8616   23.5639 N   0  0  0  0  0  0  0  0  0  0  0  0
   10.2080   -2.1439   22.4066 C   0  0  0  0  0  0  0  0  0  0  0  0
   11.5280   -1.5165   22.6199 C   0  0  0  0  0  0  0  0  0  0  0  0
   12.7084   -1.9251   22.1299 C   0  0  0  0  0  0  0  0  0  0  0  0
   13.8133   -0.9651   22.4406 C   0  0  0  0  0  0  0  0  0  0  0  0
   13.1799   -0.0570   23.4908 C   0  0  0  0  0  0  0  0  0  0  0  0
   11.6693   -0.1861   23.3031 C   0  0  0  0  0  0  0  0  0  0  0  0
    9.7749   -2.1504   24.8727 C   0  0  0  0  0  0  0  0  0  0  0  0
    9.5704   -3.1577   26.0170 C   0  0  0  0  0  0  0  0  0  0  0  0
  1  2  1  0
  2  3  1  0
  3  4  1  0
  3  5  1  0
  5  6  1  0
  6  7  1  0
  7  8  1  0
  7 14  1  0
  8  9  1  0
  9 10  2  0
 10 11  1  0
 11 12  1  0
 12 13  1  0
 13  9  1  0
 14 15  1  0
 15  3  1  0
M  END
>  <TransFSScore>  (220)
0.174407

>  <SuCOS_Score>  (220)
0.514808

>  <FeatureStein>  (220)
0.543368

>  <SCORE.norm>  (220)
-0.837902

>  <Max_SuCOS_Score>  (220)
0.655593

>  <Cum_SuCOS_Score>  (220)
4.571832

>  <TransFSScore_50nM>  (220)
0.010448

>  <TransFSScore_1uM>  (220)
0.067751

>  <TransFSScore_10nM>  (220)
0.016455

>  <TransFSScore_200nM>  (220)
0.602974

>  <TETHERED ATOMS>  (220)
4,3,5,6,7,8,9,14,15

$$$$
NCC1(O)CCN(CC2=CCCC2)CC1
     RDKit          3D

 15 16  0  0  0  0  0  0  0  0999 V2000
   10.5667   -6.0467   26.0573 N   0  0  0  0  0  0  0  0  0  0  0  0
    9.6889   -5.5155   24.9630 C   0  0  0  0  0  0  0  0  0  0  0  0
    8.6970   -4.3802   25.5604 C   0  0  0  0  0  0  0  0  0  0  0  0
    8.2054   -5.2204   26.5447 O   0  0  0  0  0  0  0  0  0  0  0  0
    7.6343   -3.9517   24.5868 C   0  0  0  0  0  0  0  0  0  0  0  0
    8.3380   -3.5815   23.3062 C   0  0  0  0  0  0  0  0  0  0  0  0
    9.6192   -2.8612   23.5569 N   0  0  0  0  0  0  0  0  0  0  0  0
   10.1965   -2.1359   22.4116 C   0  0  0  0  0  0  0  0  0  0  0  0
   11.4999   -1.4852   22.6547 C   0  0  0  0  0  0  0  0  0  0  0  0
   12.7002   -1.8814   22.2046 C   0  0  0  0  0  0  0  0  0  0  0  0
   13.7807   -0.9003   22.5343 C   0  0  0  0  0  0  0  0  0  0  0  0
   13.1032    0.0111   23.5535 C   0  0  0  0  0  0  0  0  0  0  0  0
   11.6009   -0.1441   23.3239 C   0  0  0  0  0  0  0  0  0  0  0  0
    9.7340   -2.1597   24.8723 C   0  0  0  0  0  0  0  0  0  0  0  0
    9.5145   -3.1750   26.0067 C   0  0  0  0  0  0  0  0  0  0  0  0
  1  2  1  0
  2  3  1  0
  3  4  1  0
  3  5  1  0
  5  6  1  0
  6  7  1  0
  7  8  1  0
  7 14  1  0
  8  9  1  0
  9 10  2  0
 10 11  1  0
 11 12  1  0
 12 13  1  0
 13  9  1  0
 14 15  1  0
 15  3  1  0
M  END
>  <TransFSScore>  (221)
0.190569

>  <SuCOS_Score>  (221)
0.509085

>  <FeatureStein>  (221)
0.54926

>  <SCORE.norm>  (221)
-0.821558

>  <Max_SuCOS_Score>  (221)
0.65562

>  <Cum_SuCOS_Score>  (221)
4.597836

>  <TransFSScore_50nM>  (221)
0.014447

>  <TransFSScore_1uM>  (221)
0.072728

>  <TransFSScore_10nM>  (221)
0.024661

>  <TransFSScore_200nM>  (221)
0.650441

>  <TETHERED ATOMS>  (221)
4,3,5,6,7,8,9,14,15

$$$$
NCC1(O)CCN(Cc2cc[nH]n2)CC1
     RDKit          3D

 15 16  0  0  0  0  0  0  0  0999 V2000
   10.1238   -6.4071   25.6908 N   0  0  0  0  0  0  0  0  0  0  0  0
   10.6403   -5.0022   25.5805 C   0  0  0  0  0  0  0  0  0  0  0  0
    9.5473   -3.9562   26.1734 C   0  0  0  0  0  0  0  0  0  0  0  0
    9.2291   -4.7838   27.2302 O   0  0  0  0  0  0  0  0  0  0  0  0
    8.3680   -3.7364   25.2596 C   0  0  0  0  0  0  0  0  0  0  0  0
    8.9208   -3.4205   23.9002 C   0  0  0  0  0  0  0  0  0  0  0  0
   10.0712   -2.4709   23.9750 N   0  0  0  0  0  0  0  0  0  0  0  0
   10.4386   -1.7792   22.7186 C   0  0  0  0  0  0  0  0  0  0  0  0
   11.8392   -1.3654   22.5108 C   0  0  0  0  0  0  0  0  0  0  0  0
   12.6986   -1.8019   21.4038 C   0  0  0  0  0  0  0  0  0  0  0  0
   14.0058   -1.2260   21.6258 C   0  0  0  0  0  0  0  0  0  0  0  0
   13.9930   -0.4721   22.7963 N   0  0  0  0  0  0  0  0  0  0  0  0
   12.6149   -0.5764   23.4034 N   0  0  0  0  0  0  0  0  0  0  0  0
   10.2063   -1.6761   25.2478 C   0  0  0  0  0  0  0  0  0  0  0  0
   10.2315   -2.6293   26.4620 C   0  0  0  0  0  0  0  0  0  0  0  0
  1  2  1  0
  2  3  1  0
  3  4  1  0
  3  5  1  0
  5  6  1  0
  6  7  1  0
  7  8  1  0
  7 14  1  0
  8  9  1  0
  9 10  1  0
 10 11  2  0
 11 12  1  0
 12 13  1  0
 13  9  2  0
 14 15  1  0
 15  3  1  0
M  END
>  <TransFSScore>  (222)
0.257898

>  <SuCOS_Score>  (222)
0.627537

>  <FeatureStein>  (222)
0.502219

>  <SCORE.norm>  (222)
-1.10248

>  <Max_SuCOS_Score>  (222)
0.627537

>  <Cum_SuCOS_Score>  (222)
4.159294

>  <TransFSScore_50nM>  (222)
0.100706

>  <TransFSScore_1uM>  (222)
0.066103

>  <TransFSScore_10nM>  (222)
0.047874

>  <TransFSScore_200nM>  (222)
0.816907

>  <TETHERED ATOMS>  (222)
4,3,5,6,7,8,9,14,15

$$$$
NCC1(O)CCN(Cc2ccoc2)CC1
     RDKit          3D

 15 16  0  0  0  0  0  0  0  0999 V2000
   10.2280   -6.4284   26.0599 N   0  0  0  0  0  0  0  0  0  0  0  0
   10.4641   -4.9862   26.2445 C   0  0  0  0  0  0  0  0  0  0  0  0
    9.3777   -4.1697   27.1202 C   0  0  0  0  0  0  0  0  0  0  0  0
    9.4668   -5.0220   28.2015 O   0  0  0  0  0  0  0  0  0  0  0  0
    8.0077   -4.1960   26.4914 C   0  0  0  0  0  0  0  0  0  0  0  0
    8.2137   -3.7770   25.0579 C   0  0  0  0  0  0  0  0  0  0  0  0
    9.1423   -2.6697   24.9322 N   0  0  0  0  0  0  0  0  0  0  0  0
    9.2994   -2.0585   23.6371 C   0  0  0  0  0  0  0  0  0  0  0  0
   10.6875   -1.6190   23.3547 C   0  0  0  0  0  0  0  0  0  0  0  0
   11.2599   -0.3287   23.5680 C   0  0  0  0  0  0  0  0  0  0  0  0
   12.5614   -0.3988   23.1294 C   0  0  0  0  0  0  0  0  0  0  0  0
   12.8302   -1.6375   22.6494 O   0  0  0  0  0  0  0  0  0  0  0  0
   11.6941   -2.3666   22.7716 C   0  0  0  0  0  0  0  0  0  0  0  0
    9.4232   -1.8538   26.1058 C   0  0  0  0  0  0  0  0  0  0  0  0
    9.8131   -2.7292   27.3237 C   0  0  0  0  0  0  0  0  0  0  0  0
  1  2  1  0
  2  3  1  0
  3  4  1  0
  3  5  1  0
  5  6  1  0
  6  7  1  0
  7  8  1  0
  7 14  1  0
  8  9  1  0
  9 10  1  0
 10 11  2  0
 11 12  1  0
 12 13  1  0
 13  9  2  0
 14 15  1  0
 15  3  1  0
M  END
>  <TransFSScore>  (223)
0.20636

>  <SuCOS_Score>  (223)
0.670145

>  <FeatureStein>  (223)
0.565199

>  <SCORE.norm>  (223)
-0.818304

>  <Max_SuCOS_Score>  (223)
0.670145

>  <Cum_SuCOS_Score>  (223)
4.176355

>  <TransFSScore_50nM>  (223)
0.02455

>  <TransFSScore_1uM>  (223)
0.036045

>  <TransFSScore_10nM>  (223)
0.056081

>  <TransFSScore_200nM>  (223)
0.708763

>  <TETHERED ATOMS>  (223)
4,3,5,6,7,8,9,14,15

$$$$
NCC1(O)CCN(Cc2ccoc2)CC1
     RDKit          3D

 15 16  0  0  0  0  0  0  0  0999 V2000
   10.2256   -6.3936   26.0230 N   0  0  0  0  0  0  0  0  0  0  0  0
   10.4881   -4.9692   26.2918 C   0  0  0  0  0  0  0  0  0  0  0  0
    9.3893   -4.1722   27.1699 C   0  0  0  0  0  0  0  0  0  0  0  0
    9.4872   -5.0297   28.2463 O   0  0  0  0  0  0  0  0  0  0  0  0
    8.0210   -4.2127   26.5379 C   0  0  0  0  0  0  0  0  0  0  0  0
    8.2246   -3.7825   25.1074 C   0  0  0  0  0  0  0  0  0  0  0  0
    9.1389   -2.6625   24.9902 N   0  0  0  0  0  0  0  0  0  0  0  0
    9.2907   -2.0417   23.6991 C   0  0  0  0  0  0  0  0  0  0  0  0
   10.6822   -1.6215   23.4046 C   0  0  0  0  0  0  0  0  0  0  0  0
   11.2780   -0.3430   23.6245 C   0  0  0  0  0  0  0  0  0  0  0  0
   12.5729   -0.4293   23.1695 C   0  0  0  0  0  0  0  0  0  0  0  0
   12.8157   -1.6670   22.6731 O   0  0  0  0  0  0  0  0  0  0  0  0
   11.6695   -2.3790   22.8014 C   0  0  0  0  0  0  0  0  0  0  0  0
    9.4066   -1.8500   26.1692 C   0  0  0  0  0  0  0  0  0  0  0  0
    9.8053   -2.7274   27.3828 C   0  0  0  0  0  0  0  0  0  0  0  0
  1  2  1  0
  2  3  1  0
  3  4  1  0
  3  5  1  0
  5  6  1  0
  6  7  1  0
  7  8  1  0
  7 14  1  0
  8  9  1  0
  9 10  1  0
 10 11  2  0
 11 12  1  0
 12 13  1  0
 13  9  2  0
 14 15  1  0
 15  3  1  0
M  END
>  <TransFSScore>  (224)
0.202827

>  <SuCOS_Score>  (224)
0.659153

>  <FeatureStein>  (224)
0.543862

>  <SCORE.norm>  (224)
-0.81327

>  <Max_SuCOS_Score>  (224)
0.659153

>  <Cum_SuCOS_Score>  (224)
4.146601

>  <TransFSScore_50nM>  (224)
0.026347

>  <TransFSScore_1uM>  (224)
0.036627

>  <TransFSScore_10nM>  (224)
0.057574

>  <TransFSScore_200nM>  (224)
0.690761

>  <TETHERED ATOMS>  (224)
4,3,5,6,7,8,9,14,15

$$$$
NCC1(O)CCN(Cc2ccoc2)CC1
     RDKit          3D

 15 16  0  0  0  0  0  0  0  0999 V2000
   10.2346   -6.4838   26.0701 N   0  0  0  0  0  0  0  0  0  0  0  0
   10.4506   -5.0352   26.2273 C   0  0  0  0  0  0  0  0  0  0  0  0
    9.3678   -4.2220   27.1105 C   0  0  0  0  0  0  0  0  0  0  0  0
    9.4693   -5.0723   28.1923 O   0  0  0  0  0  0  0  0  0  0  0  0
    7.9929   -4.2552   26.4929 C   0  0  0  0  0  0  0  0  0  0  0  0
    8.1854   -3.8376   25.0572 C   0  0  0  0  0  0  0  0  0  0  0  0
    9.1082   -2.7265   24.9222 N   0  0  0  0  0  0  0  0  0  0  0  0
    9.2521   -2.1166   23.6249 C   0  0  0  0  0  0  0  0  0  0  0  0
   10.6306   -1.6494   23.3405 C   0  0  0  0  0  0  0  0  0  0  0  0
   11.1643   -0.3361   23.5087 C   0  0  0  0  0  0  0  0  0  0  0  0
   12.4724   -0.3865   23.0874 C   0  0  0  0  0  0  0  0  0  0  0  0
   12.7812   -1.6350   22.6597 O   0  0  0  0  0  0  0  0  0  0  0  0
   11.6645   -2.3906   22.7983 C   0  0  0  0  0  0  0  0  0  0  0  0
    9.3950   -1.9076   26.0923 C   0  0  0  0  0  0  0  0  0  0  0  0
    9.7985   -2.7794   27.3083 C   0  0  0  0  0  0  0  0  0  0  0  0
  1  2  1  0
  2  3  1  0
  3  4  1  0
  3  5  1  0
  5  6  1  0
  6  7  1  0
  7  8  1  0
  7 14  1  0
  8  9  1  0
  9 10  1  0
 10 11  2  0
 11 12  1  0
 12 13  1  0
 13  9  2  0
 14 15  1  0
 15  3  1  0
M  END
>  <TransFSScore>  (225)
0.209711

>  <SuCOS_Score>  (225)
0.657007

>  <FeatureStein>  (225)
0.558156

>  <SCORE.norm>  (225)
-0.808619

>  <Max_SuCOS_Score>  (225)
0.657007

>  <Cum_SuCOS_Score>  (225)
4.141545

>  <TransFSScore_50nM>  (225)
0.025076

>  <TransFSScore_1uM>  (225)
0.034184

>  <TransFSScore_10nM>  (225)
0.053443

>  <TransFSScore_200nM>  (225)
0.726143

>  <TETHERED ATOMS>  (225)
4,3,5,6,7,8,9,14,15

$$$$
NCC1(O)CCN(Cc2ccoc2)CC1
     RDKit          3D

 15 16  0  0  0  0  0  0  0  0999 V2000
   10.2389   -6.4035   26.0665 N   0  0  0  0  0  0  0  0  0  0  0  0
   10.4754   -4.9641   26.2716 C   0  0  0  0  0  0  0  0  0  0  0  0
    9.3854   -4.1582   27.1525 C   0  0  0  0  0  0  0  0  0  0  0  0
    9.4862   -5.0110   28.2324 O   0  0  0  0  0  0  0  0  0  0  0  0
    8.0132   -4.1957   26.5290 C   0  0  0  0  0  0  0  0  0  0  0  0
    8.2099   -3.7732   25.0953 C   0  0  0  0  0  0  0  0  0  0  0  0
    9.1283   -2.6577   24.9673 N   0  0  0  0  0  0  0  0  0  0  0  0
    9.2749   -2.0436   23.6723 C   0  0  0  0  0  0  0  0  0  0  0  0
   10.6646   -1.6219   23.3715 C   0  0  0  0  0  0  0  0  0  0  0  0
   11.2535   -0.3363   23.5674 C   0  0  0  0  0  0  0  0  0  0  0  0
   12.5493   -0.4245   23.1157 C   0  0  0  0  0  0  0  0  0  0  0  0
   12.7993   -1.6702   22.6436 O   0  0  0  0  0  0  0  0  0  0  0  0
   11.6566   -2.3856   22.7842 C   0  0  0  0  0  0  0  0  0  0  0  0
    9.4067   -1.8408   26.1408 C   0  0  0  0  0  0  0  0  0  0  0  0
    9.8090   -2.7142   27.3561 C   0  0  0  0  0  0  0  0  0  0  0  0
  1  2  1  0
  2  3  1  0
  3  4  1  0
  3  5  1  0
  5  6  1  0
  6  7  1  0
  7  8  1  0
  7 14  1  0
  8  9  1  0
  9 10  1  0
 10 11  2  0
 11 12  1  0
 12 13  1  0
 13  9  2  0
 14 15  1  0
 15  3  1  0
M  END
>  <TransFSScore>  (226)
0.205816

>  <SuCOS_Score>  (226)
0.657486

>  <FeatureStein>  (226)
0.547886

>  <SCORE.norm>  (226)
-0.806458

>  <Max_SuCOS_Score>  (226)
0.657486

>  <Cum_SuCOS_Score>  (226)
4.144701

>  <TransFSScore_50nM>  (226)
0.024569

>  <TransFSScore_1uM>  (226)
0.036162

>  <TransFSScore_10nM>  (226)
0.057385

>  <TransFSScore_200nM>  (226)
0.705146

>  <TETHERED ATOMS>  (226)
4,3,5,6,7,8,9,14,15

$$$$
NCC1(O)CCN(Cc2ccoc2)CC1
     RDKit          3D

 15 16  0  0  0  0  0  0  0  0999 V2000
   10.2041   -6.4613   26.0552 N   0  0  0  0  0  0  0  0  0  0  0  0
   10.4286   -5.0155   26.2256 C   0  0  0  0  0  0  0  0  0  0  0  0
    9.3466   -4.2027   27.1101 C   0  0  0  0  0  0  0  0  0  0  0  0
    9.4577   -5.0467   28.1959 O   0  0  0  0  0  0  0  0  0  0  0  0
    7.9686   -4.2457   26.4998 C   0  0  0  0  0  0  0  0  0  0  0  0
    8.1517   -3.8349   25.0609 C   0  0  0  0  0  0  0  0  0  0  0  0
    9.0685   -2.7202   24.9152 N   0  0  0  0  0  0  0  0  0  0  0  0
    9.2028   -2.1166   23.6139 C   0  0  0  0  0  0  0  0  0  0  0  0
   10.5685   -1.6102   23.3348 C   0  0  0  0  0  0  0  0  0  0  0  0
   11.5576   -2.1801   22.4776 C   0  0  0  0  0  0  0  0  0  0  0  0
   12.6666   -1.3717   22.5653 C   0  0  0  0  0  0  0  0  0  0  0  0
   12.4369   -0.3493   23.4250 O   0  0  0  0  0  0  0  0  0  0  0  0
   11.1769   -0.5043   23.8998 C   0  0  0  0  0  0  0  0  0  0  0  0
    9.3575   -1.8937   26.0793 C   0  0  0  0  0  0  0  0  0  0  0  0
    9.7715   -2.7570   27.2979 C   0  0  0  0  0  0  0  0  0  0  0  0
  1  2  1  0
  2  3  1  0
  3  4  1  0
  3  5  1  0
  5  6  1  0
  6  7  1  0
  7  8  1  0
  7 14  1  0
  8  9  1  0
  9 10  1  0
 10 11  2  0
 11 12  1  0
 12 13  1  0
 13  9  2  0
 14 15  1  0
 15  3  1  0
M  END
>  <TransFSScore>  (227)
0.178226

>  <SuCOS_Score>  (227)
0.659721

>  <FeatureStein>  (227)
0.570993

>  <SCORE.norm>  (227)
-0.799466

>  <Max_SuCOS_Score>  (227)
0.659721

>  <Cum_SuCOS_Score>  (227)
4.181067

>  <TransFSScore_50nM>  (227)
0.026534

>  <TransFSScore_1uM>  (227)
0.057905

>  <TransFSScore_10nM>  (227)
0.066039

>  <TransFSScore_200nM>  (227)
0.562425

>  <TETHERED ATOMS>  (227)
4,3,5,6,7,8,9,14,15

$$$$
NCC1(O)CCN(Cc2ccoc2)CC1
     RDKit          3D

 15 16  0  0  0  0  0  0  0  0999 V2000
   10.2129   -6.3944   26.0179 N   0  0  0  0  0  0  0  0  0  0  0  0
   10.4754   -4.9687   26.2794 C   0  0  0  0  0  0  0  0  0  0  0  0
    9.3891   -4.1732   27.1743 C   0  0  0  0  0  0  0  0  0  0  0  0
    9.4885   -5.0432   28.2405 O   0  0  0  0  0  0  0  0  0  0  0  0
    8.0160   -4.1966   26.5521 C   0  0  0  0  0  0  0  0  0  0  0  0
    8.2122   -3.7523   25.1250 C   0  0  0  0  0  0  0  0  0  0  0  0
    9.1340   -2.6379   25.0132 N   0  0  0  0  0  0  0  0  0  0  0  0
    9.2810   -2.0040   23.7278 C   0  0  0  0  0  0  0  0  0  0  0  0
   10.6824   -1.6436   23.4027 C   0  0  0  0  0  0  0  0  0  0  0  0
   11.3198   -0.3752   23.5535 C   0  0  0  0  0  0  0  0  0  0  0  0
   12.6073   -0.5253   23.0943 C   0  0  0  0  0  0  0  0  0  0  0  0
   12.8070   -1.7935   22.6595 O   0  0  0  0  0  0  0  0  0  0  0  0
   11.6402   -2.4613   22.8317 C   0  0  0  0  0  0  0  0  0  0  0  0
    9.4164   -1.8404   26.1990 C   0  0  0  0  0  0  0  0  0  0  0  0
    9.8175   -2.7340   27.3999 C   0  0  0  0  0  0  0  0  0  0  0  0
  1  2  1  0
  2  3  1  0
  3  4  1  0
  3  5  1  0
  5  6  1  0
  6  7  1  0
  7  8  1  0
  7 14  1  0
  8  9  1  0
  9 10  1  0
 10 11  2  0
 11 12  1  0
 12 13  1  0
 13  9  2  0
 14 15  1  0
 15  3  1  0
M  END
>  <TransFSScore>  (228)
0.208653

>  <SuCOS_Score>  (228)
0.648369

>  <FeatureStein>  (228)
0.528249

>  <SCORE.norm>  (228)
-0.796745

>  <Max_SuCOS_Score>  (228)
0.648369

>  <Cum_SuCOS_Score>  (228)
4.086122

>  <TransFSScore_50nM>  (228)
0.028065

>  <TransFSScore_1uM>  (228)
0.036897

>  <TransFSScore_10nM>  (228)
0.058419

>  <TransFSScore_200nM>  (228)
0.711233

>  <TETHERED ATOMS>  (228)
4,3,5,6,7,8,9,14,15

$$$$
NCC1(O)CCN(Cc2ccoc2)CC1
     RDKit          3D

 15 16  0  0  0  0  0  0  0  0999 V2000
   10.2010   -6.3987   25.9855 N   0  0  0  0  0  0  0  0  0  0  0  0
   10.4478   -4.9604   26.1862 C   0  0  0  0  0  0  0  0  0  0  0  0
    9.3668   -4.1453   27.0697 C   0  0  0  0  0  0  0  0  0  0  0  0
    9.4552   -5.0048   28.1454 O   0  0  0  0  0  0  0  0  0  0  0  0
    7.9951   -4.1623   26.4441 C   0  0  0  0  0  0  0  0  0  0  0  0
    8.1993   -3.7350   25.0129 C   0  0  0  0  0  0  0  0  0  0  0  0
    9.1319   -2.6306   24.8919 N   0  0  0  0  0  0  0  0  0  0  0  0
    9.2882   -2.0117   23.6002 C   0  0  0  0  0  0  0  0  0  0  0  0
   10.6697   -1.5441   23.3315 C   0  0  0  0  0  0  0  0  0  0  0  0
   11.6077   -2.0713   22.3934 C   0  0  0  0  0  0  0  0  0  0  0  0
   12.7571   -1.3281   22.5269 C   0  0  0  0  0  0  0  0  0  0  0  0
   12.5997   -0.3869   23.4894 O   0  0  0  0  0  0  0  0  0  0  0  0
   11.3459   -0.5295   23.9840 C   0  0  0  0  0  0  0  0  0  0  0  0
    9.4188   -1.8232   26.0699 C   0  0  0  0  0  0  0  0  0  0  0  0
    9.8082   -2.7078   27.2813 C   0  0  0  0  0  0  0  0  0  0  0  0
  1  2  1  0
  2  3  1  0
  3  4  1  0
  3  5  1  0
  5  6  1  0
  6  7  1  0
  7  8  1  0
  7 14  1  0
  8  9  1  0
  9 10  1  0
 10 11  2  0
 11 12  1  0
 12 13  1  0
 13  9  2  0
 14 15  1  0
 15  3  1  0
M  END
>  <TransFSScore>  (229)
0.187073

>  <SuCOS_Score>  (229)
0.692461

>  <FeatureStein>  (229)
0.600937

>  <SCORE.norm>  (229)
-0.789682

>  <Max_SuCOS_Score>  (229)
0.692461

>  <Cum_SuCOS_Score>  (229)
4.284503

>  <TransFSScore_50nM>  (229)
0.027212

>  <TransFSScore_1uM>  (229)
0.059717

>  <TransFSScore_10nM>  (229)
0.076443

>  <TransFSScore_200nM>  (229)
0.584921

>  <TETHERED ATOMS>  (229)
4,3,5,6,7,8,9,14,15

$$$$
NCC1(O)CCN(Cc2ccoc2)CC1
     RDKit          3D

 15 16  0  0  0  0  0  0  0  0999 V2000
   10.2417   -6.3862   26.0623 N   0  0  0  0  0  0  0  0  0  0  0  0
   10.5035   -4.9444   26.2122 C   0  0  0  0  0  0  0  0  0  0  0  0
    9.4191   -4.0831   27.0465 C   0  0  0  0  0  0  0  0  0  0  0  0
    9.4755   -4.9052   28.1532 O   0  0  0  0  0  0  0  0  0  0  0  0
    8.0587   -4.1028   26.3969 C   0  0  0  0  0  0  0  0  0  0  0  0
    8.2946   -3.7294   24.9555 C   0  0  0  0  0  0  0  0  0  0  0  0
    9.2455   -2.6433   24.8128 N   0  0  0  0  0  0  0  0  0  0  0  0
    9.4340   -2.0730   23.5033 C   0  0  0  0  0  0  0  0  0  0  0  0
   10.8089   -1.5684   23.2701 C   0  0  0  0  0  0  0  0  0  0  0  0
   11.8340   -2.1537   22.4672 C   0  0  0  0  0  0  0  0  0  0  0  0
   12.9367   -1.3401   22.5831 C   0  0  0  0  0  0  0  0  0  0  0  0
   12.6692   -0.3001   23.4102 O   0  0  0  0  0  0  0  0  0  0  0  0
   11.3909   -0.4487   23.8356 C   0  0  0  0  0  0  0  0  0  0  0  0
    9.5234   -1.7989   25.9668 C   0  0  0  0  0  0  0  0  0  0  0  0
    9.8780   -2.6455   27.2155 C   0  0  0  0  0  0  0  0  0  0  0  0
  1  2  1  0
  2  3  1  0
  3  4  1  0
  3  5  1  0
  5  6  1  0
  6  7  1  0
  7  8  1  0
  7 14  1  0
  8  9  1  0
  9 10  1  0
 10 11  2  0
 11 12  1  0
 12 13  1  0
 13  9  2  0
 14 15  1  0
 15  3  1  0
M  END
>  <TransFSScore>  (230)
0.1781

>  <SuCOS_Score>  (230)
0.721194

>  <FeatureStein>  (230)
0.630605

>  <SCORE.norm>  (230)
-0.78755

>  <Max_SuCOS_Score>  (230)
0.721194

>  <Cum_SuCOS_Score>  (230)
4.33389

>  <TransFSScore_50nM>  (230)
0.023404

>  <TransFSScore_1uM>  (230)
0.068621

>  <TransFSScore_10nM>  (230)
0.059883

>  <TransFSScore_200nM>  (230)
0.560491

>  <TETHERED ATOMS>  (230)
4,3,5,6,7,8,9,14,15

$$$$
NCC1(O)CCN(Cc2cnns2)CC1
     RDKit          3D

 15 16  0  0  0  0  0  0  0  0999 V2000
   10.9174   -5.8266   26.0827 N   0  0  0  0  0  0  0  0  0  0  0  0
    9.9512   -5.3768   25.0274 C   0  0  0  0  0  0  0  0  0  0  0  0
    8.8996   -4.2992   25.6463 C   0  0  0  0  0  0  0  0  0  0  0  0
    8.3505   -5.2259   26.5099 O   0  0  0  0  0  0  0  0  0  0  0  0
    7.8910   -3.7861   24.6536 C   0  0  0  0  0  0  0  0  0  0  0  0
    8.6614   -3.2990   23.4574 C   0  0  0  0  0  0  0  0  0  0  0  0
    9.9007   -2.5679   23.8416 N   0  0  0  0  0  0  0  0  0  0  0  0
   10.5654   -1.7713   22.7914 C   0  0  0  0  0  0  0  0  0  0  0  0
   11.8328   -1.0752   23.1486 C   0  0  0  0  0  0  0  0  0  0  0  0
   13.1009   -1.1372   22.5811 C   0  0  0  0  0  0  0  0  0  0  0  0
   13.9559   -0.1949   23.1423 N   0  0  0  0  0  0  0  0  0  0  0  0
   13.4946    0.5907   24.0937 N   0  0  0  0  0  0  0  0  0  0  0  0
   11.8707    0.2268   24.2936 S   0  0  0  0  0  0  0  0  0  0  0  0
    9.9382   -2.0037   25.2355 C   0  0  0  0  0  0  0  0  0  0  0  0
    9.6712   -3.1314   26.2494 C   0  0  0  0  0  0  0  0  0  0  0  0
  1  2  1  0
  2  3  1  0
  3  4  1  0
  3  5  1  0
  5  6  1  0
  6  7  1  0
  7  8  1  0
  7 14  1  0
  8  9  1  0
  9 10  2  0
 10 11  1  0
 11 12  2  0
 12 13  1  0
 13  9  1  0
 14 15  1  0
 15  3  1  0
M  END
>  <TransFSScore>  (231)
0.153351

>  <SuCOS_Score>  (231)
0.584634

>  <FeatureStein>  (231)
0.539658

>  <SCORE.norm>  (231)
-1.10028

>  <Max_SuCOS_Score>  (231)
0.623759

>  <Cum_SuCOS_Score>  (231)
4.819561

>  <TransFSScore_50nM>  (231)
0.011119

>  <TransFSScore_1uM>  (231)
0.10387

>  <TransFSScore_10nM>  (231)
0.04501

>  <TransFSScore_200nM>  (231)
0.453405

>  <TETHERED ATOMS>  (231)
4,3,5,6,7,8,9,14,15

$$$$
NCC1(O)CCN(Cc2cnns2)CC1
     RDKit          3D

 15 16  0  0  0  0  0  0  0  0999 V2000
   10.2925   -6.3313   26.1289 N   0  0  0  0  0  0  0  0  0  0  0  0
   10.7247   -4.9150   26.3668 C   0  0  0  0  0  0  0  0  0  0  0  0
    9.4962   -4.0459   26.9877 C   0  0  0  0  0  0  0  0  0  0  0  0
    9.2964   -4.9376   28.0227 O   0  0  0  0  0  0  0  0  0  0  0  0
    8.2949   -3.9499   26.0858 C   0  0  0  0  0  0  0  0  0  0  0  0
    8.7885   -3.4754   24.7468 C   0  0  0  0  0  0  0  0  0  0  0  0
    9.8268   -2.4148   24.8695 N   0  0  0  0  0  0  0  0  0  0  0  0
   10.1530   -1.6478   23.6512 C   0  0  0  0  0  0  0  0  0  0  0  0
   11.5517   -1.1607   23.4935 C   0  0  0  0  0  0  0  0  0  0  0  0
   12.5106   -1.4333   22.5239 C   0  0  0  0  0  0  0  0  0  0  0  0
   13.6374   -0.6343   22.6843 N   0  0  0  0  0  0  0  0  0  0  0  0
   13.6657    0.2270   23.6805 N   0  0  0  0  0  0  0  0  0  0  0  0
   12.1852    0.1320   24.4606 S   0  0  0  0  0  0  0  0  0  0  0  0
    9.8553   -1.6553   26.1676 C   0  0  0  0  0  0  0  0  0  0  0  0
    9.9937   -2.6481   27.3364 C   0  0  0  0  0  0  0  0  0  0  0  0
  1  2  1  0
  2  3  1  0
  3  4  1  0
  3  5  1  0
  5  6  1  0
  6  7  1  0
  7  8  1  0
  7 14  1  0
  8  9  1  0
  9 10  2  0
 10 11  1  0
 11 12  2  0
 12 13  1  0
 13  9  1  0
 14 15  1  0
 15  3  1  0
M  END
>  <TransFSScore>  (232)
0.136473

>  <SuCOS_Score>  (232)
0.756047

>  <FeatureStein>  (232)
0.590594

>  <SCORE.norm>  (232)
-1.07866

>  <Max_SuCOS_Score>  (232)
0.756047

>  <Cum_SuCOS_Score>  (232)
4.502674

>  <TransFSScore_50nM>  (232)
0.03578

>  <TransFSScore_1uM>  (232)
0.109498

>  <TransFSScore_10nM>  (232)
0.097082

>  <TransFSScore_200nM>  (232)
0.303532

>  <TETHERED ATOMS>  (232)
4,3,5,6,7,8,9,14,15

$$$$
NCC1(O)CCN(Cc2cnns2)CC1
     RDKit          3D

 15 16  0  0  0  0  0  0  0  0999 V2000
   10.0109   -6.4074   25.6105 N   0  0  0  0  0  0  0  0  0  0  0  0
   10.5940   -5.0336   25.4630 C   0  0  0  0  0  0  0  0  0  0  0  0
    9.5521   -3.9144   26.0216 C   0  0  0  0  0  0  0  0  0  0  0  0
    9.2140   -4.6772   27.1217 O   0  0  0  0  0  0  0  0  0  0  0  0
    8.3718   -3.6702   25.1199 C   0  0  0  0  0  0  0  0  0  0  0  0
    8.9188   -3.3919   23.7470 C   0  0  0  0  0  0  0  0  0  0  0  0
   10.1323   -2.5294   23.7851 N   0  0  0  0  0  0  0  0  0  0  0  0
   10.5692   -1.9251   22.5112 C   0  0  0  0  0  0  0  0  0  0  0  0
   11.9282   -1.3176   22.4632 C   0  0  0  0  0  0  0  0  0  0  0  0
   12.6070   -0.5227   23.3805 C   0  0  0  0  0  0  0  0  0  0  0  0
   13.9239   -0.3064   22.9897 N   0  0  0  0  0  0  0  0  0  0  0  0
   14.3446   -0.8394   21.8610 N   0  0  0  0  0  0  0  0  0  0  0  0
   13.0786   -1.7438   21.2374 S   0  0  0  0  0  0  0  0  0  0  0  0
   10.3191   -1.6941   25.0222 C   0  0  0  0  0  0  0  0  0  0  0  0
   10.2979   -2.6071   26.2619 C   0  0  0  0  0  0  0  0  0  0  0  0
  1  2  1  0
  2  3  1  0
  3  4  1  0
  3  5  1  0
  5  6  1  0
  6  7  1  0
  7  8  1  0
  7 14  1  0
  8  9  1  0
  9 10  2  0
 10 11  1  0
 11 12  2  0
 12 13  1  0
 13  9  1  0
 14 15  1  0
 15  3  1  0
M  END
>  <TransFSScore>  (233)
0.249945

>  <SuCOS_Score>  (233)
0.604108

>  <FeatureStein>  (233)
0.513216

>  <SCORE.norm>  (233)
-1.0683

>  <Max_SuCOS_Score>  (233)
0.604108

>  <Cum_SuCOS_Score>  (233)
4.40774

>  <TransFSScore_50nM>  (233)
0.053703

>  <TransFSScore_1uM>  (233)
0.028622

>  <TransFSScore_10nM>  (233)
0.252278

>  <TransFSScore_200nM>  (233)
0.665177

>  <TETHERED ATOMS>  (233)
4,3,5,6,7,8,9,14,15

$$$$
NCC1(O)CCN(CC2CCCC2)CC1
     RDKit          3D

 15 16  0  0  0  0  0  0  0  0999 V2000
    8.9508   -5.2928   27.9539 N   0  0  0  0  0  0  0  0  0  0  0  0
    8.4912   -5.1410   26.5752 C   0  0  0  0  0  0  0  0  0  0  0  0
    9.5029   -5.7625   25.4801 C   0  0  0  0  0  0  0  0  0  0  0  0
    9.5416   -7.0062   26.0745 O   0  0  0  0  0  0  0  0  0  0  0  0
   10.8891   -5.1717   25.4144 C   0  0  0  0  0  0  0  0  0  0  0  0
   10.7489   -3.6830   25.4249 C   0  0  0  0  0  0  0  0  0  0  0  0
    9.5924   -3.2278   24.6168 N   0  0  0  0  0  0  0  0  0  0  0  0
    9.4648   -1.8081   24.2820 C   0  0  0  0  0  0  0  0  0  0  0  0
   10.0730   -1.3978   22.9483 C   0  0  0  0  0  0  0  0  0  0  0  0
    9.9348    0.1195   22.7258 C   0  0  0  0  0  0  0  0  0  0  0  0
   11.0653    0.7412   23.5304 C   0  0  0  0  0  0  0  0  0  0  0  0
   12.1887   -0.2882   23.5046 C   0  0  0  0  0  0  0  0  0  0  0  0
   11.5985   -1.5589   22.8909 C   0  0  0  0  0  0  0  0  0  0  0  0
    9.0770   -4.1760   23.5701 C   0  0  0  0  0  0  0  0  0  0  0  0
    8.8130   -5.5793   24.1487 C   0  0  0  0  0  0  0  0  0  0  0  0
  1  2  1  0
  2  3  1  0
  3  4  1  0
  3  5  1  0
  5  6  1  0
  6  7  1  0
  7  8  1  0
  7 14  1  0
  8  9  1  0
  9 10  1  0
 10 11  1  0
 11 12  1  0
 12 13  1  0
 13  9  1  0
 14 15  1  0
 15  3  1  0
M  END
>  <TransFSScore>  (234)
0.221729

>  <SuCOS_Score>  (234)
0.563563

>  <FeatureStein>  (234)
0.531075

>  <SCORE.norm>  (234)
-0.84152

>  <Max_SuCOS_Score>  (234)
0.563563

>  <Cum_SuCOS_Score>  (234)
4.196567

>  <TransFSScore_50nM>  (234)
0.036333

>  <TransFSScore_1uM>  (234)
0.05523

>  <TransFSScore_10nM>  (234)
0.025702

>  <TransFSScore_200nM>  (234)
0.769653

>  <TETHERED ATOMS>  (234)
4,3,5,6,7,8,9,14,15

$$$$
NCC1(O)CCN(Cc2ccccc2)CC1
     RDKit          3D

 16 17  0  0  0  0  0  0  0  0999 V2000
    9.9317   -7.1528   25.9929 N   0  0  0  0  0  0  0  0  0  0  0  0
    9.0436   -6.3847   25.0703 C   0  0  0  0  0  0  0  0  0  0  0  0
    9.1844   -4.8599   25.3601 C   0  0  0  0  0  0  0  0  0  0  0  0
    8.7063   -4.6788   26.7029 O   0  0  0  0  0  0  0  0  0  0  0  0
   10.6387   -4.4253   25.2947 C   0  0  0  0  0  0  0  0  0  0  0  0
   10.8068   -2.9194   25.3794 C   0  0  0  0  0  0  0  0  0  0  0  0
    9.9438   -2.2259   24.3907 N   0  0  0  0  0  0  0  0  0  0  0  0
   10.4188   -0.9419   23.8308 C   0  0  0  0  0  0  0  0  0  0  0  0
   11.7003   -0.9957   23.0669 C   0  0  0  0  0  0  0  0  0  0  0  0
   12.8599   -0.3747   23.5594 C   0  0  0  0  0  0  0  0  0  0  0  0
   14.0581   -0.4498   22.8480 C   0  0  0  0  0  0  0  0  0  0  0  0
   14.1116   -1.1404   21.6398 C   0  0  0  0  0  0  0  0  0  0  0  0
   12.9674   -1.7537   21.1356 C   0  0  0  0  0  0  0  0  0  0  0  0
   11.7668   -1.6825   21.8428 C   0  0  0  0  0  0  0  0  0  0  0  0
    9.0688   -3.0493   23.5303 C   0  0  0  0  0  0  0  0  0  0  0  0
    8.2919   -4.0089   24.4380 C   0  0  0  0  0  0  0  0  0  0  0  0
  1  2  1  0
  2  3  1  0
  3  4  1  0
  3  5  1  0
  5  6  1  0
  6  7  1  0
  7  8  1  0
  7 15  1  0
  8  9  1  0
  9 10  2  0
 10 11  1  0
 11 12  2  0
 12 13  1  0
 13 14  2  0
 14  9  1  0
 15 16  1  0
 16  3  1  0
M  END
>  <TransFSScore>  (235)
0.213331

>  <SuCOS_Score>  (235)
0.637898

>  <FeatureStein>  (235)
0.521894

>  <SCORE.norm>  (235)
-0.817431

>  <Max_SuCOS_Score>  (235)
0.637898

>  <Cum_SuCOS_Score>  (235)
4.686723

>  <TransFSScore_50nM>  (235)
0.025114

>  <TransFSScore_1uM>  (235)
0.151424

>  <TransFSScore_10nM>  (235)
0.028893

>  <TransFSScore_200nM>  (235)
0.647895

>  <TETHERED ATOMS>  (235)
4,3,5,6,7,8,9,15,16

$$$$
NCC1(O)CCN(Cc2ccccc2)CC1
     RDKit          3D

 16 17  0  0  0  0  0  0  0  0999 V2000
    9.9631   -7.2342   26.0075 N   0  0  0  0  0  0  0  0  0  0  0  0
    9.0112   -6.4003   25.2148 C   0  0  0  0  0  0  0  0  0  0  0  0
    9.2729   -4.8916   25.5050 C   0  0  0  0  0  0  0  0  0  0  0  0
    9.0852   -4.7352   26.9210 O   0  0  0  0  0  0  0  0  0  0  0  0
   10.7009   -4.5095   25.1546 C   0  0  0  0  0  0  0  0  0  0  0  0
   10.9469   -3.0142   25.2382 C   0  0  0  0  0  0  0  0  0  0  0  0
    9.9318   -2.2584   24.4626 N   0  0  0  0  0  0  0  0  0  0  0  0
   10.3378   -0.9761   23.8475 C   0  0  0  0  0  0  0  0  0  0  0  0
   11.6492   -0.9791   23.1341 C   0  0  0  0  0  0  0  0  0  0  0  0
   12.7527   -0.2803   23.6507 C   0  0  0  0  0  0  0  0  0  0  0  0
   13.9801   -0.3078   22.9873 C   0  0  0  0  0  0  0  0  0  0  0  0
   14.1188   -1.0279   21.8033 C   0  0  0  0  0  0  0  0  0  0  0  0
   13.0307   -1.7185   21.2753 C   0  0  0  0  0  0  0  0  0  0  0  0
   11.8012   -1.6951   21.9346 C   0  0  0  0  0  0  0  0  0  0  0  0
    8.8661   -3.0214   23.7798 C   0  0  0  0  0  0  0  0  0  0  0  0
    8.2491   -3.9795   24.8043 C   0  0  0  0  0  0  0  0  0  0  0  0
  1  2  1  0
  2  3  1  0
  3  4  1  0
  3  5  1  0
  5  6  1  0
  6  7  1  0
  7  8  1  0
  7 15  1  0
  8  9  1  0
  9 10  2  0
 10 11  1  0
 11 12  2  0
 12 13  1  0
 13 14  2  0
 14  9  1  0
 15 16  1  0
 16  3  1  0
M  END
>  <TransFSScore>  (236)
0.211787

>  <SuCOS_Score>  (236)
0.696466

>  <FeatureStein>  (236)
0.539791

>  <SCORE.norm>  (236)
-0.813306

>  <Max_SuCOS_Score>  (236)
0.696466

>  <Cum_SuCOS_Score>  (236)
4.716957

>  <TransFSScore_50nM>  (236)
0.01897

>  <TransFSScore_1uM>  (236)
0.154712

>  <TransFSScore_10nM>  (236)
0.027487

>  <TransFSScore_200nM>  (236)
0.645979

>  <TETHERED ATOMS>  (236)
4,3,5,6,7,8,9,15,16

$$$$
NCC1(O)CCN(Cc2ccccc2)CC1
     RDKit          3D

 16 17  0  0  0  0  0  0  0  0999 V2000
    9.9504   -7.1909   26.0043 N   0  0  0  0  0  0  0  0  0  0  0  0
    9.0143   -6.3700   25.1798 C   0  0  0  0  0  0  0  0  0  0  0  0
    9.2725   -4.8567   25.4487 C   0  0  0  0  0  0  0  0  0  0  0  0
    9.0306   -4.6699   26.8526 O   0  0  0  0  0  0  0  0  0  0  0  0
   10.7151   -4.4885   25.1464 C   0  0  0  0  0  0  0  0  0  0  0  0
   10.9655   -2.9929   25.2084 C   0  0  0  0  0  0  0  0  0  0  0  0
    9.9854   -2.2490   24.3783 N   0  0  0  0  0  0  0  0  0  0  0  0
   10.4219   -0.9817   23.7530 C   0  0  0  0  0  0  0  0  0  0  0  0
   11.7196   -1.0286   23.0165 C   0  0  0  0  0  0  0  0  0  0  0  0
   11.8290   -1.7060   21.7909 C   0  0  0  0  0  0  0  0  0  0  0  0
   13.0413   -1.7250   21.0999 C   0  0  0  0  0  0  0  0  0  0  0  0
   14.1549   -1.0733   21.6239 C   0  0  0  0  0  0  0  0  0  0  0  0
   14.0629   -0.4050   22.8423 C   0  0  0  0  0  0  0  0  0  0  0  0
   12.8533   -0.3820   23.5373 C   0  0  0  0  0  0  0  0  0  0  0  0
    8.9431   -3.0214   23.6703 C   0  0  0  0  0  0  0  0  0  0  0  0
    8.2816   -3.9550   24.6897 C   0  0  0  0  0  0  0  0  0  0  0  0
  1  2  1  0
  2  3  1  0
  3  4  1  0
  3  5  1  0
  5  6  1  0
  6  7  1  0
  7  8  1  0
  7 15  1  0
  8  9  1  0
  9 10  2  0
 10 11  1  0
 11 12  2  0
 12 13  1  0
 13 14  2  0
 14  9  1  0
 15 16  1  0
 16  3  1  0
M  END
>  <TransFSScore>  (237)
0.214034

>  <SuCOS_Score>  (237)
0.652267

>  <FeatureStein>  (237)
0.517213

>  <SCORE.norm>  (237)
-0.807701

>  <Max_SuCOS_Score>  (237)
0.652267

>  <Cum_SuCOS_Score>  (237)
4.604632

>  <TransFSScore_50nM>  (237)
0.024225

>  <TransFSScore_1uM>  (237)
0.146777

>  <TransFSScore_10nM>  (237)
0.027649

>  <TransFSScore_200nM>  (237)
0.657484

>  <TETHERED ATOMS>  (237)
4,3,5,6,7,8,9,15,16

$$$$
NCC1(O)CCN(Cc2ccccc2)CC1
     RDKit          3D

 16 17  0  0  0  0  0  0  0  0999 V2000
    9.9267   -7.1691   26.0001 N   0  0  0  0  0  0  0  0  0  0  0  0
    9.0107   -6.3547   25.1470 C   0  0  0  0  0  0  0  0  0  0  0  0
    9.2257   -4.8409   25.4483 C   0  0  0  0  0  0  0  0  0  0  0  0
    8.8641   -4.6692   26.8283 O   0  0  0  0  0  0  0  0  0  0  0  0
   10.6838   -4.4523   25.2715 C   0  0  0  0  0  0  0  0  0  0  0  0
   10.9086   -2.9544   25.3659 C   0  0  0  0  0  0  0  0  0  0  0  0
    9.9924   -2.2153   24.4619 N   0  0  0  0  0  0  0  0  0  0  0  0
   10.4634   -0.9373   23.8854 C   0  0  0  0  0  0  0  0  0  0  0  0
   11.7431   -0.9978   23.1189 C   0  0  0  0  0  0  0  0  0  0  0  0
   11.8272   -1.7098   21.9110 C   0  0  0  0  0  0  0  0  0  0  0  0
   13.0223   -1.7416   21.1913 C   0  0  0  0  0  0  0  0  0  0  0  0
   14.1440   -1.0682   21.6687 C   0  0  0  0  0  0  0  0  0  0  0  0
   14.0772   -0.3652   22.8692 C   0  0  0  0  0  0  0  0  0  0  0  0
   12.8847   -0.3294   23.5928 C   0  0  0  0  0  0  0  0  0  0  0  0
    9.0235   -2.9942   23.6627 C   0  0  0  0  0  0  0  0  0  0  0  0
    8.2906   -3.9447   24.6154 C   0  0  0  0  0  0  0  0  0  0  0  0
  1  2  1  0
  2  3  1  0
  3  4  1  0
  3  5  1  0
  5  6  1  0
  6  7  1  0
  7  8  1  0
  7 15  1  0
  8  9  1  0
  9 10  2  0
 10 11  1  0
 11 12  2  0
 12 13  1  0
 13 14  2  0
 14  9  1  0
 15 16  1  0
 16  3  1  0
M  END
>  <TransFSScore>  (238)
0.209587

>  <SuCOS_Score>  (238)
0.659367

>  <FeatureStein>  (238)
0.522852

>  <SCORE.norm>  (238)
-0.793439

>  <Max_SuCOS_Score>  (238)
0.659367

>  <Cum_SuCOS_Score>  (238)
4.659212

>  <TransFSScore_50nM>  (238)
0.02102

>  <TransFSScore_1uM>  (238)
0.154134

>  <TransFSScore_10nM>  (238)
0.028657

>  <TransFSScore_200nM>  (238)
0.634536

>  <TETHERED ATOMS>  (238)
4,3,5,6,7,8,9,15,16

$$$$
NCC1(O)CCN(Cc2cccnc2)CC1
     RDKit          3D

 16 17  0  0  0  0  0  0  0  0999 V2000
    9.9340   -7.1671   25.9425 N   0  0  0  0  0  0  0  0  0  0  0  0
    9.1612   -6.4043   24.9208 C   0  0  0  0  0  0  0  0  0  0  0  0
    9.2456   -4.8702   25.2270 C   0  0  0  0  0  0  0  0  0  0  0  0
    8.7490   -4.7545   26.5675 O   0  0  0  0  0  0  0  0  0  0  0  0
   10.6949   -4.4152   25.2031 C   0  0  0  0  0  0  0  0  0  0  0  0
   10.8544   -2.9110   25.2705 C   0  0  0  0  0  0  0  0  0  0  0  0
   10.0070   -2.2257   24.2621 N   0  0  0  0  0  0  0  0  0  0  0  0
   10.4576   -0.9369   23.6995 C   0  0  0  0  0  0  0  0  0  0  0  0
   11.7354   -0.9185   22.9075 C   0  0  0  0  0  0  0  0  0  0  0  0
   11.8665   -1.6868   21.7394 C   0  0  0  0  0  0  0  0  0  0  0  0
   13.0848   -1.7430   21.0610 C   0  0  0  0  0  0  0  0  0  0  0  0
   14.1764   -1.0477   21.5623 C   0  0  0  0  0  0  0  0  0  0  0  0
   14.0415   -0.3260   22.6868 N   0  0  0  0  0  0  0  0  0  0  0  0
   12.8778   -0.2401   23.3621 C   0  0  0  0  0  0  0  0  0  0  0  0
    9.1407   -3.0715   23.3936 C   0  0  0  0  0  0  0  0  0  0  0  0
    8.3597   -4.0327   24.2953 C   0  0  0  0  0  0  0  0  0  0  0  0
  1  2  1  0
  2  3  1  0
  3  4  1  0
  3  5  1  0
  5  6  1  0
  6  7  1  0
  7  8  1  0
  7 15  1  0
  8  9  1  0
  9 10  2  0
 10 11  1  0
 11 12  2  0
 12 13  1  0
 13 14  2  0
 14  9  1  0
 15 16  1  0
 16  3  1  0
M  END
>  <TransFSScore>  (239)
0.222228

>  <SuCOS_Score>  (239)
0.569543

>  <FeatureStein>  (239)
0.506062

>  <SCORE.norm>  (239)
-0.956792

>  <Max_SuCOS_Score>  (239)
0.57238

>  <Cum_SuCOS_Score>  (239)
4.543272

>  <TransFSScore_50nM>  (239)
0.061338

>  <TransFSScore_1uM>  (239)
0.12258

>  <TransFSScore_10nM>  (239)
0.008567

>  <TransFSScore_200nM>  (239)
0.696428

>  <TETHERED ATOMS>  (239)
4,3,5,6,7,8,9,15,16

$$$$
NCC1(O)CCN(Cc2cccnc2)CC1
     RDKit          3D

 16 17  0  0  0  0  0  0  0  0999 V2000
    9.9476   -7.1839   25.9955 N   0  0  0  0  0  0  0  0  0  0  0  0
    9.1021   -6.3921   25.0568 C   0  0  0  0  0  0  0  0  0  0  0  0
    9.2330   -4.8654   25.3827 C   0  0  0  0  0  0  0  0  0  0  0  0
    8.8042   -4.7623   26.7474 O   0  0  0  0  0  0  0  0  0  0  0  0
   10.6887   -4.4392   25.2956 C   0  0  0  0  0  0  0  0  0  0  0  0
   10.8825   -2.9398   25.3789 C   0  0  0  0  0  0  0  0  0  0  0  0
   10.0020   -2.2209   24.4238 N   0  0  0  0  0  0  0  0  0  0  0  0
   10.4516   -0.9321   23.8604 C   0  0  0  0  0  0  0  0  0  0  0  0
   11.7136   -0.9188   23.0433 C   0  0  0  0  0  0  0  0  0  0  0  0
   11.8218   -1.6944   21.8777 C   0  0  0  0  0  0  0  0  0  0  0  0
   13.0265   -1.7549   21.1759 C   0  0  0  0  0  0  0  0  0  0  0  0
   14.1278   -1.0565   21.6512 C   0  0  0  0  0  0  0  0  0  0  0  0
   14.0149   -0.3278   22.7737 N   0  0  0  0  0  0  0  0  0  0  0  0
   12.8647   -0.2376   23.4711 C   0  0  0  0  0  0  0  0  0  0  0  0
    9.0773   -3.0345   23.5851 C   0  0  0  0  0  0  0  0  0  0  0  0
    8.3209   -3.9948   24.5084 C   0  0  0  0  0  0  0  0  0  0  0  0
  1  2  1  0
  2  3  1  0
  3  4  1  0
  3  5  1  0
  5  6  1  0
  6  7  1  0
  7  8  1  0
  7 15  1  0
  8  9  1  0
  9 10  2  0
 10 11  1  0
 11 12  2  0
 12 13  1  0
 13 14  2  0
 14  9  1  0
 15 16  1  0
 16  3  1  0
M  END
>  <TransFSScore>  (240)
0.207992

>  <SuCOS_Score>  (240)
0.616297

>  <FeatureStein>  (240)
0.538676

>  <SCORE.norm>  (240)
-0.952193

>  <Max_SuCOS_Score>  (240)
0.616297

>  <Cum_SuCOS_Score>  (240)
4.593279

>  <TransFSScore_50nM>  (240)
0.068152

>  <TransFSScore_1uM>  (240)
0.134444

>  <TransFSScore_10nM>  (240)
0.009194

>  <TransFSScore_200nM>  (240)
0.62018

>  <TETHERED ATOMS>  (240)
4,3,5,6,7,8,9,15,16

$$$$
NCC1(O)CCN(Cc2cccnc2)CC1
     RDKit          3D

 16 17  0  0  0  0  0  0  0  0999 V2000
    9.9704   -7.0905   25.9333 N   0  0  0  0  0  0  0  0  0  0  0  0
    8.9479   -6.2331   25.2683 C   0  0  0  0  0  0  0  0  0  0  0  0
    9.2452   -4.7239   25.5655 C   0  0  0  0  0  0  0  0  0  0  0  0
    9.0779   -4.6088   26.9853 O   0  0  0  0  0  0  0  0  0  0  0  0
   10.6882   -4.4009   25.2169 C   0  0  0  0  0  0  0  0  0  0  0  0
   11.0015   -2.9202   25.2642 C   0  0  0  0  0  0  0  0  0  0  0  0
   10.0174   -2.1280   24.4842 N   0  0  0  0  0  0  0  0  0  0  0  0
   10.4498   -0.8670   23.8492 C   0  0  0  0  0  0  0  0  0  0  0  0
   11.7132   -0.8820   23.0341 C   0  0  0  0  0  0  0  0  0  0  0  0
   11.8157   -1.6818   21.8845 C   0  0  0  0  0  0  0  0  0  0  0  0
   13.0209   -1.7679   21.1861 C   0  0  0  0  0  0  0  0  0  0  0  0
   14.1280   -1.0705   21.6492 C   0  0  0  0  0  0  0  0  0  0  0  0
   14.0204   -0.3184   22.7566 N   0  0  0  0  0  0  0  0  0  0  0  0
   12.8700   -0.2033   23.4502 C   0  0  0  0  0  0  0  0  0  0  0  0
    8.9005   -2.8628   23.8262 C   0  0  0  0  0  0  0  0  0  0  0  0
    8.2556   -3.7793   24.8708 C   0  0  0  0  0  0  0  0  0  0  0  0
  1  2  1  0
  2  3  1  0
  3  4  1  0
  3  5  1  0
  5  6  1  0
  6  7  1  0
  7  8  1  0
  7 15  1  0
  8  9  1  0
  9 10  2  0
 10 11  1  0
 11 12  2  0
 12 13  1  0
 13 14  2  0
 14  9  1  0
 15 16  1  0
 16  3  1  0
M  END
>  <TransFSScore>  (241)
0.202257

>  <SuCOS_Score>  (241)
0.640612

>  <FeatureStein>  (241)
0.526803

>  <SCORE.norm>  (241)
-0.946685

>  <Max_SuCOS_Score>  (241)
0.640612

>  <Cum_SuCOS_Score>  (241)
4.56779

>  <TransFSScore_50nM>  (241)
0.087125

>  <TransFSScore_1uM>  (241)
0.134113

>  <TransFSScore_10nM>  (241)
0.010443

>  <TransFSScore_200nM>  (241)
0.577346

>  <TETHERED ATOMS>  (241)
4,3,5,6,7,8,9,15,16

$$$$
NCC1(O)CCN(Cc2cccnc2)CC1
     RDKit          3D

 16 17  0  0  0  0  0  0  0  0999 V2000
    9.9251   -7.1274   25.9194 N   0  0  0  0  0  0  0  0  0  0  0  0
    9.1162   -6.3440   24.9422 C   0  0  0  0  0  0  0  0  0  0  0  0
    9.2108   -4.8166   25.2776 C   0  0  0  0  0  0  0  0  0  0  0  0
    8.6878   -4.7192   26.6095 O   0  0  0  0  0  0  0  0  0  0  0  0
   10.6652   -4.3776   25.2916 C   0  0  0  0  0  0  0  0  0  0  0  0
   10.8395   -2.8766   25.3893 C   0  0  0  0  0  0  0  0  0  0  0  0
   10.0207   -2.1641   24.3762 N   0  0  0  0  0  0  0  0  0  0  0  0
   10.4967   -0.8706   23.8462 C   0  0  0  0  0  0  0  0  0  0  0  0
   11.7467   -0.8651   23.0108 C   0  0  0  0  0  0  0  0  0  0  0  0
   11.8407   -1.6572   21.8552 C   0  0  0  0  0  0  0  0  0  0  0  0
   13.0354   -1.7241   21.1369 C   0  0  0  0  0  0  0  0  0  0  0  0
   14.1409   -1.0152   21.5860 C   0  0  0  0  0  0  0  0  0  0  0  0
   14.0418   -0.2705   22.6992 N   0  0  0  0  0  0  0  0  0  0  0  0
   12.9015   -0.1740   23.4119 C   0  0  0  0  0  0  0  0  0  0  0  0
    9.1634   -2.9846   23.4750 C   0  0  0  0  0  0  0  0  0  0  0  0
    8.3535   -3.9529   24.3430 C   0  0  0  0  0  0  0  0  0  0  0  0
  1  2  1  0
  2  3  1  0
  3  4  1  0
  3  5  1  0
  5  6  1  0
  6  7  1  0
  7  8  1  0
  7 15  1  0
  8  9  1  0
  9 10  2  0
 10 11  1  0
 11 12  2  0
 12 13  1  0
 13 14  2  0
 14  9  1  0
 15 16  1  0
 16  3  1  0
M  END
>  <TransFSScore>  (242)
0.211762

>  <SuCOS_Score>  (242)
0.582285

>  <FeatureStein>  (242)
0.506457

>  <SCORE.norm>  (242)
-0.928727

>  <Max_SuCOS_Score>  (242)
0.582285

>  <Cum_SuCOS_Score>  (242)
4.596269

>  <TransFSScore_50nM>  (242)
0.05891

>  <TransFSScore_1uM>  (242)
0.124017

>  <TransFSScore_10nM>  (242)
0.008265

>  <TransFSScore_200nM>  (242)
0.655855

>  <TETHERED ATOMS>  (242)
4,3,5,6,7,8,9,15,16

$$$$
NCC1(O)CCN(Cc2cccnc2)CC1
     RDKit          3D

 16 17  0  0  0  0  0  0  0  0999 V2000
    9.9408   -7.1459   25.9235 N   0  0  0  0  0  0  0  0  0  0  0  0
    9.0258   -6.3373   25.0679 C   0  0  0  0  0  0  0  0  0  0  0  0
    9.1906   -4.8159   25.4035 C   0  0  0  0  0  0  0  0  0  0  0  0
    8.7815   -4.7152   26.7745 O   0  0  0  0  0  0  0  0  0  0  0  0
   10.6530   -4.4173   25.3006 C   0  0  0  0  0  0  0  0  0  0  0  0
   10.8769   -2.9226   25.3926 C   0  0  0  0  0  0  0  0  0  0  0  0
    9.9982   -2.1794   24.4546 N   0  0  0  0  0  0  0  0  0  0  0  0
   10.4655   -0.8952   23.8950 C   0  0  0  0  0  0  0  0  0  0  0  0
   11.7223   -0.8983   23.0699 C   0  0  0  0  0  0  0  0  0  0  0  0
   11.8253   -1.7015   21.9228 C   0  0  0  0  0  0  0  0  0  0  0  0
   13.0258   -1.7758   21.2150 C   0  0  0  0  0  0  0  0  0  0  0  0
   14.1281   -1.0632   21.6663 C   0  0  0  0  0  0  0  0  0  0  0  0
   14.0202   -0.3079   22.7715 N   0  0  0  0  0  0  0  0  0  0  0  0
   12.8741   -0.2039   23.4739 C   0  0  0  0  0  0  0  0  0  0  0  0
    9.0472   -2.9684   23.6219 C   0  0  0  0  0  0  0  0  0  0  0  0
    8.2842   -3.9212   24.5478 C   0  0  0  0  0  0  0  0  0  0  0  0
  1  2  1  0
  2  3  1  0
  3  4  1  0
  3  5  1  0
  5  6  1  0
  6  7  1  0
  7  8  1  0
  7 15  1  0
  8  9  1  0
  9 10  2  0
 10 11  1  0
 11 12  2  0
 12 13  1  0
 13 14  2  0
 14  9  1  0
 15 16  1  0
 16  3  1  0
M  END
>  <TransFSScore>  (243)
0.195913

>  <SuCOS_Score>  (243)
0.619296

>  <FeatureStein>  (243)
0.534875

>  <SCORE.norm>  (243)
-0.922533

>  <Max_SuCOS_Score>  (243)
0.619296

>  <Cum_SuCOS_Score>  (243)
4.613252

>  <TransFSScore_50nM>  (243)
0.066409

>  <TransFSScore_1uM>  (243)
0.135488

>  <TransFSScore_10nM>  (243)
0.009042

>  <TransFSScore_200nM>  (243)
0.572715

>  <TETHERED ATOMS>  (243)
4,3,5,6,7,8,9,15,16

$$$$
NCC1(O)CCN(Cc2cccnc2)CC1
     RDKit          3D

 16 17  0  0  0  0  0  0  0  0999 V2000
    9.9243   -7.2320   25.9340 N   0  0  0  0  0  0  0  0  0  0  0  0
    8.9999   -6.3295   25.1897 C   0  0  0  0  0  0  0  0  0  0  0  0
    9.3326   -4.8354   25.5238 C   0  0  0  0  0  0  0  0  0  0  0  0
    9.2411   -4.7693   26.9535 O   0  0  0  0  0  0  0  0  0  0  0  0
   10.7596   -4.5169   25.1113 C   0  0  0  0  0  0  0  0  0  0  0  0
   11.0948   -3.0425   25.1941 C   0  0  0  0  0  0  0  0  0  0  0  0
   10.0820   -2.2116   24.4952 N   0  0  0  0  0  0  0  0  0  0  0  0
   10.4977   -0.9338   23.8830 C   0  0  0  0  0  0  0  0  0  0  0  0
   11.7415   -0.9252   23.0383 C   0  0  0  0  0  0  0  0  0  0  0  0
   11.8265   -1.7122   21.8785 C   0  0  0  0  0  0  0  0  0  0  0  0
   13.0158   -1.7765   21.1512 C   0  0  0  0  0  0  0  0  0  0  0  0
   14.1251   -1.0703   21.5953 C   0  0  0  0  0  0  0  0  0  0  0  0
   14.0346   -0.3307   22.7126 N   0  0  0  0  0  0  0  0  0  0  0  0
   12.8996   -0.2366   23.4341 C   0  0  0  0  0  0  0  0  0  0  0  0
    8.9226   -2.9094   23.8714 C   0  0  0  0  0  0  0  0  0  0  0  0
    8.3208   -3.8552   24.9156 C   0  0  0  0  0  0  0  0  0  0  0  0
  1  2  1  0
  2  3  1  0
  3  4  1  0
  3  5  1  0
  5  6  1  0
  6  7  1  0
  7  8  1  0
  7 15  1  0
  8  9  1  0
  9 10  2  0
 10 11  1  0
 11 12  2  0
 12 13  1  0
 13 14  2  0
 14  9  1  0
 15 16  1  0
 16  3  1  0
M  END
>  <TransFSScore>  (244)
0.205208

>  <SuCOS_Score>  (244)
0.636158

>  <FeatureStein>  (244)
0.512584

>  <SCORE.norm>  (244)
-0.922157

>  <Max_SuCOS_Score>  (244)
0.636158

>  <Cum_SuCOS_Score>  (244)
4.49229

>  <TransFSScore_50nM>  (244)
0.067439

>  <TransFSScore_1uM>  (244)
0.139379

>  <TransFSScore_10nM>  (244)
0.008754

>  <TransFSScore_200nM>  (244)
0.60526

>  <TETHERED ATOMS>  (244)
4,3,5,6,7,8,9,15,16

$$$$
NCC1(O)CCN(Cc2cccnc2)CC1
     RDKit          3D

 16 17  0  0  0  0  0  0  0  0999 V2000
    9.9114   -7.2102   25.9337 N   0  0  0  0  0  0  0  0  0  0  0  0
    8.7874   -6.2656   25.6590 C   0  0  0  0  0  0  0  0  0  0  0  0
    9.3053   -4.8025   25.7556 C   0  0  0  0  0  0  0  0  0  0  0  0
    9.5490   -4.5722   27.1569 O   0  0  0  0  0  0  0  0  0  0  0  0
   10.6187   -4.6178   25.0189 C   0  0  0  0  0  0  0  0  0  0  0  0
   10.9075   -3.1401   24.8670 C   0  0  0  0  0  0  0  0  0  0  0  0
    9.9404   -2.6268   23.8597 N   0  0  0  0  0  0  0  0  0  0  0  0
   10.1952   -1.2054   23.5202 C   0  0  0  0  0  0  0  0  0  0  0  0
   11.6298   -1.0452   23.1177 C   0  0  0  0  0  0  0  0  0  0  0  0
   12.1765   -1.7407   22.0321 C   0  0  0  0  0  0  0  0  0  0  0  0
   13.5103   -1.5412   21.6818 C   0  0  0  0  0  0  0  0  0  0  0  0
   14.2583   -0.6463   22.4256 C   0  0  0  0  0  0  0  0  0  0  0  0
   13.7618    0.0357   23.4798 N   0  0  0  0  0  0  0  0  0  0  0  0
   12.4829   -0.1999   23.8230 C   0  0  0  0  0  0  0  0  0  0  0  0
    8.5112   -2.9813   24.0610 C   0  0  0  0  0  0  0  0  0  0  0  0
    8.2497   -3.7651   25.3432 C   0  0  0  0  0  0  0  0  0  0  0  0
  1  2  1  0
  2  3  1  0
  3  4  1  0
  3  5  1  0
  5  6  1  0
  6  7  1  0
  7  8  1  0
  7 15  1  0
  8  9  1  0
  9 10  2  0
 10 11  1  0
 11 12  2  0
 12 13  1  0
 13 14  2  0
 14  9  1  0
 15 16  1  0
 16  3  1  0
M  END
>  <TransFSScore>  (245)
0.169931

>  <SuCOS_Score>  (245)
0.671556

>  <FeatureStein>  (245)
0.52639

>  <SCORE.norm>  (245)
-0.89387

>  <Max_SuCOS_Score>  (245)
0.671556

>  <Cum_SuCOS_Score>  (245)
4.562737

>  <TransFSScore_50nM>  (245)
0.143526

>  <TransFSScore_1uM>  (245)
0.095893

>  <TransFSScore_10nM>  (245)
0.009017

>  <TransFSScore_200nM>  (245)
0.431288

>  <TETHERED ATOMS>  (245)
4,3,5,6,7,8,9,15,16

$$$$
NCC1(O)CCN(Cc2ccno2)CC1
     RDKit          3D

 15 16  0  0  0  0  0  0  0  0999 V2000
   10.1539   -6.5745   25.9795 N   0  0  0  0  0  0  0  0  0  0  0  0
   10.4187   -5.1245   26.1283 C   0  0  0  0  0  0  0  0  0  0  0  0
    9.3655   -4.2094   26.9563 C   0  0  0  0  0  0  0  0  0  0  0  0
    9.4706   -4.9347   28.1203 O   0  0  0  0  0  0  0  0  0  0  0  0
    7.9707   -4.2239   26.3871 C   0  0  0  0  0  0  0  0  0  0  0  0
    8.1134   -3.9927   24.9148 C   0  0  0  0  0  0  0  0  0  0  0  0
    9.1055   -2.9348   24.6220 N   0  0  0  0  0  0  0  0  0  0  0  0
    9.2108   -2.4613   23.2461 C   0  0  0  0  0  0  0  0  0  0  0  0
   10.5793   -2.0718   22.8028 C   0  0  0  0  0  0  0  0  0  0  0  0
   11.0517   -1.0377   21.9826 C   0  0  0  0  0  0  0  0  0  0  0  0
   12.4525   -1.2639   21.8536 C   0  0  0  0  0  0  0  0  0  0  0  0
   12.7865   -2.3872   22.5758 N   0  0  0  0  0  0  0  0  0  0  0  0
   11.6045   -2.9212   23.1967 O   0  0  0  0  0  0  0  0  0  0  0  0
    9.4814   -1.9960   25.7271 C   0  0  0  0  0  0  0  0  0  0  0  0
    9.8864   -2.7823   26.9896 C   0  0  0  0  0  0  0  0  0  0  0  0
  1  2  1  0
  2  3  1  0
  3  4  1  0
  3  5  1  0
  5  6  1  0
  6  7  1  0
  7  8  1  0
  7 14  1  0
  8  9  1  0
  9 10  2  0
 10 11  1  0
 11 12  2  0
 12 13  1  0
 13  9  1  0
 14 15  1  0
 15  3  1  0
M  END
>  <TransFSScore>  (246)
0.244198

>  <SuCOS_Score>  (246)
0.565806

>  <FeatureStein>  (246)
0.496982

>  <SCORE.norm>  (246)
-0.954658

>  <Max_SuCOS_Score>  (246)
0.565806

>  <Cum_SuCOS_Score>  (246)
3.494619

>  <TransFSScore_50nM>  (246)
0.124568

>  <TransFSScore_1uM>  (246)
0.096488

>  <TransFSScore_10nM>  (246)
0.030454

>  <TransFSScore_200nM>  (246)
0.725283

>  <TETHERED ATOMS>  (246)
4,3,5,6,7,8,9,14,15

$$$$
NCC1(O)CCN(Cc2ccno2)CC1
     RDKit          3D

 15 16  0  0  0  0  0  0  0  0999 V2000
   10.1209   -6.5606   25.9713 N   0  0  0  0  0  0  0  0  0  0  0  0
   10.4012   -5.1158   26.1404 C   0  0  0  0  0  0  0  0  0  0  0  0
    9.3690   -4.2056   26.9997 C   0  0  0  0  0  0  0  0  0  0  0  0
    9.4456   -4.9808   28.1333 O   0  0  0  0  0  0  0  0  0  0  0  0
    7.9781   -4.1566   26.4228 C   0  0  0  0  0  0  0  0  0  0  0  0
    8.1371   -3.8693   24.9621 C   0  0  0  0  0  0  0  0  0  0  0  0
    9.1608   -2.8293   24.7185 N   0  0  0  0  0  0  0  0  0  0  0  0
    9.2887   -2.3028   23.3639 C   0  0  0  0  0  0  0  0  0  0  0  0
   10.6681   -1.9194   22.9503 C   0  0  0  0  0  0  0  0  0  0  0  0
   11.1789   -0.8041   22.2718 C   0  0  0  0  0  0  0  0  0  0  0  0
   12.5649   -1.0751   22.0832 C   0  0  0  0  0  0  0  0  0  0  0  0
   12.8537   -2.3026   22.6355 N   0  0  0  0  0  0  0  0  0  0  0  0
   11.6560   -2.8624   23.2009 O   0  0  0  0  0  0  0  0  0  0  0  0
    9.5560   -1.9478   25.8635 C   0  0  0  0  0  0  0  0  0  0  0  0
    9.9300   -2.7966   27.0946 C   0  0  0  0  0  0  0  0  0  0  0  0
  1  2  1  0
  2  3  1  0
  3  4  1  0
  3  5  1  0
  5  6  1  0
  6  7  1  0
  7  8  1  0
  7 14  1  0
  8  9  1  0
  9 10  2  0
 10 11  1  0
 11 12  2  0
 12 13  1  0
 13  9  1  0
 14 15  1  0
 15  3  1  0
M  END
>  <TransFSScore>  (247)
0.236895

>  <SuCOS_Score>  (247)
0.588436

>  <FeatureStein>  (247)
0.508626

>  <SCORE.norm>  (247)
-0.920889

>  <Max_SuCOS_Score>  (247)
0.588436

>  <Cum_SuCOS_Score>  (247)
3.646701

>  <TransFSScore_50nM>  (247)
0.084633

>  <TransFSScore_1uM>  (247)
0.110451

>  <TransFSScore_10nM>  (247)
0.03553

>  <TransFSScore_200nM>  (247)
0.716965

>  <TETHERED ATOMS>  (247)
4,3,5,6,7,8,9,14,15

$$$$
NCC1(O)CCN(Cc2cscn2)CC1
     RDKit          3D

 15 16  0  0  0  0  0  0  0  0999 V2000
    9.6351   -6.7056   26.1989 N   0  0  0  0  0  0  0  0  0  0  0  0
    9.0281   -5.9242   25.0767 C   0  0  0  0  0  0  0  0  0  0  0  0
    8.2130   -4.6567   25.6582 C   0  0  0  0  0  0  0  0  0  0  0  0
    7.3411   -5.4268   26.4062 O   0  0  0  0  0  0  0  0  0  0  0  0
    7.4299   -3.8302   24.6695 C   0  0  0  0  0  0  0  0  0  0  0  0
    8.3461   -3.6136   23.5180 C   0  0  0  0  0  0  0  0  0  0  0  0
    9.5604   -2.8642   23.9621 N   0  0  0  0  0  0  0  0  0  0  0  0
   10.6065   -2.8700   22.8932 C   0  0  0  0  0  0  0  0  0  0  0  0
   11.6652   -1.8316   23.1127 C   0  0  0  0  0  0  0  0  0  0  0  0
   11.6106   -0.6673   23.8531 C   0  0  0  0  0  0  0  0  0  0  0  0
   13.0846    0.2048   23.7166 S   0  0  0  0  0  0  0  0  0  0  0  0
   13.7192   -0.9300   22.6104 C   0  0  0  0  0  0  0  0  0  0  0  0
   12.8641   -1.9193   22.3990 N   0  0  0  0  0  0  0  0  0  0  0  0
   10.1522   -3.0955   25.3329 C   0  0  0  0  0  0  0  0  0  0  0  0
    9.2251   -3.7768   26.3349 C   0  0  0  0  0  0  0  0  0  0  0  0
  1  2  1  0
  2  3  1  0
  3  4  1  0
  3  5  1  0
  5  6  1  0
  6  7  1  0
  7  8  1  0
  7 14  1  0
  8  9  1  0
  9 10  2  0
 10 11  1  0
 11 12  1  0
 12 13  2  0
 13  9  1  0
 14 15  1  0
 15  3  1  0
M  END
>  <TransFSScore>  (248)
0.093876

>  <SuCOS_Score>  (248)
0.568594

>  <FeatureStein>  (248)
0.539784

>  <SCORE.norm>  (248)
-0.967685

>  <Max_SuCOS_Score>  (248)
0.568594

>  <Cum_SuCOS_Score>  (248)
4.347614

>  <TransFSScore_50nM>  (248)
0.036818

>  <TransFSScore_1uM>  (248)
0.119599

>  <TransFSScore_10nM>  (248)
0.091019

>  <TransFSScore_200nM>  (248)
0.128067

>  <TETHERED ATOMS>  (248)
4,3,5,6,7,8,9,14,15

$$$$
NCC1(O)CCN(Cc2ccco2)CC1
     RDKit          3D

 15 16  0  0  0  0  0  0  0  0999 V2000
   10.1521   -6.5891   25.9903 N   0  0  0  0  0  0  0  0  0  0  0  0
   10.4238   -5.1360   26.0764 C   0  0  0  0  0  0  0  0  0  0  0  0
    9.4163   -4.1865   26.9239 C   0  0  0  0  0  0  0  0  0  0  0  0
    9.5051   -4.9564   28.0633 O   0  0  0  0  0  0  0  0  0  0  0  0
    8.0131   -4.1698   26.3760 C   0  0  0  0  0  0  0  0  0  0  0  0
    8.1313   -3.9357   24.8995 C   0  0  0  0  0  0  0  0  0  0  0  0
    9.1685   -2.9206   24.5989 N   0  0  0  0  0  0  0  0  0  0  0  0
    9.2394   -2.4384   23.2184 C   0  0  0  0  0  0  0  0  0  0  0  0
   10.5743   -1.9848   22.7795 C   0  0  0  0  0  0  0  0  0  0  0  0
   11.0246   -0.9052   22.0465 C   0  0  0  0  0  0  0  0  0  0  0  0
   12.4307   -1.0475   21.9515 C   0  0  0  0  0  0  0  0  0  0  0  0
   12.7486   -2.2029   22.6254 C   0  0  0  0  0  0  0  0  0  0  0  0
   11.6282   -2.7770   23.1350 O   0  0  0  0  0  0  0  0  0  0  0  0
    9.5753   -1.9891   25.6841 C   0  0  0  0  0  0  0  0  0  0  0  0
    9.9798   -2.7794   26.9480 C   0  0  0  0  0  0  0  0  0  0  0  0
  1  2  1  0
  2  3  1  0
  3  4  1  0
  3  5  1  0
  5  6  1  0
  6  7  1  0
  7  8  1  0
  7 14  1  0
  8  9  1  0
  9 10  2  0
 10 11  1  0
 11 12  2  0
 12 13  1  0
 13  9  1  0
 14 15  1  0
 15  3  1  0
M  END
>  <TransFSScore>  (249)
0.174029

>  <SuCOS_Score>  (249)
0.58757

>  <FeatureStein>  (249)
0.517101

>  <SCORE.norm>  (249)
-0.789208

>  <Max_SuCOS_Score>  (249)
0.58757

>  <Cum_SuCOS_Score>  (249)
3.576554

>  <TransFSScore_50nM>  (249)
0.071032

>  <TransFSScore_1uM>  (249)
0.031012

>  <TransFSScore_10nM>  (249)
0.036259

>  <TransFSScore_200nM>  (249)
0.557812

>  <TETHERED ATOMS>  (249)
4,3,5,6,7,8,9,14,15

$$$$
NCC1(O)CCN(CC2CCCS2)CC1
     RDKit          3D

 15 16  0  0  0  0  0  0  0  0999 V2000
   10.1727   -6.4701   26.0545 N   0  0  0  0  0  0  0  0  0  0  0  0
   10.4850   -5.0054   26.1388 C   0  0  0  0  0  0  0  0  0  0  0  0
    9.3808   -4.2601   27.0667 C   0  0  0  0  0  0  0  0  0  0  0  0
    9.6031   -5.1084   28.1367 O   0  0  0  0  0  0  0  0  0  0  0  0
    7.9754   -4.3663   26.5418 C   0  0  0  0  0  0  0  0  0  0  0  0
    8.0198   -3.9256   25.1043 C   0  0  0  0  0  0  0  0  0  0  0  0
    8.9102   -2.7529   24.9019 N   0  0  0  0  0  0  0  0  0  0  0  0
    8.7785   -2.0011   23.6360 C   0  0  0  0  0  0  0  0  0  0  0  0
    9.9809   -1.1683   23.2077 C   0  0  2  0  0  0  0  0  0  0  0  0
   10.3409    0.0092   24.1150 C   0  0  0  0  0  0  0  0  0  0  0  0
   11.1186    1.0060   23.2642 C   0  0  0  0  0  0  0  0  0  0  0  0
   10.2899    1.2646   22.0214 C   0  0  0  0  0  0  0  0  0  0  0  0
    9.5585   -0.3476   21.6224 S   0  0  0  0  0  0  0  0  0  0  0  0
    9.1795   -1.9079   26.1147 C   0  0  0  0  0  0  0  0  0  0  0  0
    9.7656   -2.7955   27.2270 C   0  0  0  0  0  0  0  0  0  0  0  0
  1  2  1  0
  2  3  1  0
  3  4  1  0
  3  5  1  0
  5  6  1  0
  6  7  1  0
  7  8  1  0
  7 14  1  0
  9  8  1  1
  9 10  1  0
 10 11  1  0
 11 12  1  0
 12 13  1  0
 13  9  1  0
 14 15  1  0
 15  3  1  0
M  END
>  <TransFSScore>  (250)
0.200275

>  <SuCOS_Score>  (250)
0.471542

>  <FeatureStein>  (250)
0.492237

>  <SCORE.norm>  (250)
-0.807075

>  <Max_SuCOS_Score>  (250)
0.471542

>  <Cum_SuCOS_Score>  (250)
3.732685

>  <TransFSScore_50nM>  (250)
0.221913

>  <TransFSScore_1uM>  (250)
0.092631

>  <TransFSScore_10nM>  (250)
0.048458

>  <TransFSScore_200nM>  (250)
0.4381

>  <TETHERED ATOMS>  (250)
4,3,5,6,7,8,9,14,15

$$$$
CN(C)C(=O)c1ccccc1CN1CCC(O)CC1
     RDKit          3D

 19 20  0  0  0  0  0  0  0  0999 V2000
    8.9710    0.1020   27.3995 C   0  0  0  0  0  0  0  0  0  0  0  0
    8.7405    0.2884   25.9303 N   0  0  0  0  0  0  0  0  0  0  0  0
    7.3090    0.6321   25.6327 C   0  0  0  0  0  0  0  0  0  0  0  0
    9.1805   -0.8910   25.1673 C   0  0  0  0  0  0  0  0  0  0  0  0
    8.4724   -1.8788   25.2738 O   0  0  0  0  0  0  0  0  0  0  0  0
   10.4023   -0.9073   24.3115 C   0  0  0  0  0  0  0  0  0  0  0  0
   11.3196    0.1520   24.4270 C   0  0  0  0  0  0  0  0  0  0  0  0
   12.4827    0.1651   23.6575 C   0  0  0  0  0  0  0  0  0  0  0  0
   12.7463   -0.8729   22.7723 C   0  0  0  0  0  0  0  0  0  0  0  0
   11.8527   -1.9361   22.6542 C   0  0  0  0  0  0  0  0  0  0  0  0
   10.6691   -1.9840   23.4208 C   0  0  0  0  0  0  0  0  0  0  0  0
    9.7535   -3.1614   23.2093 C   0  0  0  0  0  0  0  0  0  0  0  0
    9.5517   -4.0492   24.3562 N   0  0  0  0  0  0  0  0  0  0  0  0
   10.7413   -4.3750   25.2052 C   0  0  0  0  0  0  0  0  0  0  0  0
   10.5122   -5.6084   26.0493 C   0  0  0  0  0  0  0  0  0  0  0  0
    9.1252   -5.4354   26.5652 C   0  0  0  0  0  0  0  0  0  0  0  0
    8.9245   -5.6732   27.9038 O   0  0  0  0  0  0  0  0  0  0  0  0
    8.0525   -5.6542   25.5385 C   0  0  0  0  0  0  0  0  0  0  0  0
    8.5256   -5.1368   24.1711 C   0  0  0  0  0  0  0  0  0  0  0  0
  1  2  1  0
  2  3  1  0
  2  4  1  0
  4  5  2  0
  4  6  1  0
  6  7  2  0
  7  8  1  0
  8  9  2  0
  9 10  1  0
 10 11  2  0
 11 12  1  0
 11  6  1  0
 12 13  1  0
 13 14  1  0
 14 15  1  0
 15 16  1  0
 16 17  1  0
 16 18  1  0
 18 19  1  0
 19 13  1  0
M  END
>  <TransFSScore>  (251)
0.112267

>  <SuCOS_Score>  (251)
0.624596

>  <FeatureStein>  (251)
0.561103

>  <SCORE.norm>  (251)
-0.869099

>  <Max_SuCOS_Score>  (251)
0.624596

>  <Cum_SuCOS_Score>  (251)
5.160323

>  <TransFSScore_50nM>  (251)
0.016021

>  <TransFSScore_1uM>  (251)
0.244428

>  <TransFSScore_10nM>  (251)
0.064579

>  <TransFSScore_200nM>  (251)
0.12404

>  <TETHERED ATOMS>  (251)
17,16,15,14,13,12,11,19,18

$$$$
CN(C)C(=O)c1ccccc1CN1CCC(O)CC1
     RDKit          3D

 19 20  0  0  0  0  0  0  0  0999 V2000
    8.9406    0.1518   27.4100 C   0  0  0  0  0  0  0  0  0  0  0  0
    8.7079    0.3337   25.9406 N   0  0  0  0  0  0  0  0  0  0  0  0
    7.2703    0.6496   25.6417 C   0  0  0  0  0  0  0  0  0  0  0  0
    9.1714   -0.8368   25.1779 C   0  0  0  0  0  0  0  0  0  0  0  0
    8.4825   -1.8382   25.2838 O   0  0  0  0  0  0  0  0  0  0  0  0
   10.3940   -0.8295   24.3232 C   0  0  0  0  0  0  0  0  0  0  0  0
   11.2977    0.2402   24.4499 C   0  0  0  0  0  0  0  0  0  0  0  0
   12.4612    0.2755   23.6816 C   0  0  0  0  0  0  0  0  0  0  0  0
   12.7387   -0.7505   22.7868 C   0  0  0  0  0  0  0  0  0  0  0  0
   11.8587   -1.8237   22.6575 C   0  0  0  0  0  0  0  0  0  0  0  0
   10.6752   -1.8941   23.4225 C   0  0  0  0  0  0  0  0  0  0  0  0
    9.7747   -3.0809   23.1988 C   0  0  0  0  0  0  0  0  0  0  0  0
    9.5841   -3.9828   24.3365 N   0  0  0  0  0  0  0  0  0  0  0  0
   10.7740   -4.2884   25.1926 C   0  0  0  0  0  0  0  0  0  0  0  0
   10.5665   -5.5339   26.0245 C   0  0  0  0  0  0  0  0  0  0  0  0
    9.1717   -5.3971   26.5303 C   0  0  0  0  0  0  0  0  0  0  0  0
    8.9657   -5.6508   27.8652 O   0  0  0  0  0  0  0  0  0  0  0  0
    8.1127   -5.6318   25.4930 C   0  0  0  0  0  0  0  0  0  0  0  0
    8.5849   -5.0920   24.1338 C   0  0  0  0  0  0  0  0  0  0  0  0
  1  2  1  0
  2  3  1  0
  2  4  1  0
  4  5  2  0
  4  6  1  0
  6  7  2  0
  7  8  1  0
  8  9  2  0
  9 10  1  0
 10 11  2  0
 11 12  1  0
 11  6  1  0
 12 13  1  0
 13 14  1  0
 14 15  1  0
 15 16  1  0
 16 17  1  0
 16 18  1  0
 18 19  1  0
 19 13  1  0
M  END
>  <TransFSScore>  (252)
0.114259

>  <SuCOS_Score>  (252)
0.632136

>  <FeatureStein>  (252)
0.584975

>  <SCORE.norm>  (252)
-0.868947

>  <Max_SuCOS_Score>  (252)
0.632136

>  <Cum_SuCOS_Score>  (252)
5.231215

>  <TransFSScore_50nM>  (252)
0.016116

>  <TransFSScore_1uM>  (252)
0.258729

>  <TransFSScore_10nM>  (252)
0.059922

>  <TransFSScore_200nM>  (252)
0.12227

>  <TETHERED ATOMS>  (252)
17,16,15,14,13,12,11,19,18

$$$$
CN(C)C(=O)c1ccccc1CN1CCC(O)CC1
     RDKit          3D

 19 20  0  0  0  0  0  0  0  0999 V2000
    8.9110    0.1822   27.3921 C   0  0  0  0  0  0  0  0  0  0  0  0
    8.6964    0.3412   25.9173 N   0  0  0  0  0  0  0  0  0  0  0  0
    7.2648    0.6628   25.5966 C   0  0  0  0  0  0  0  0  0  0  0  0
    9.1596   -0.8454   25.1796 C   0  0  0  0  0  0  0  0  0  0  0  0
    8.4618   -1.8396   25.2942 O   0  0  0  0  0  0  0  0  0  0  0  0
   10.3919   -0.8615   24.3391 C   0  0  0  0  0  0  0  0  0  0  0  0
   11.2921    0.2135   24.4433 C   0  0  0  0  0  0  0  0  0  0  0  0
   12.4643    0.2278   23.6876 C   0  0  0  0  0  0  0  0  0  0  0  0
   12.7539   -0.8245   22.8277 C   0  0  0  0  0  0  0  0  0  0  0  0
   11.8774   -1.9030   22.7213 C   0  0  0  0  0  0  0  0  0  0  0  0
   10.6853   -1.9525   23.4746 C   0  0  0  0  0  0  0  0  0  0  0  0
    9.7897   -3.1475   23.2770 C   0  0  0  0  0  0  0  0  0  0  0  0
    9.5873   -4.0145   24.4397 N   0  0  0  0  0  0  0  0  0  0  0  0
   10.7843   -4.3594   25.2706 C   0  0  0  0  0  0  0  0  0  0  0  0
   10.5401   -5.5751   26.1358 C   0  0  0  0  0  0  0  0  0  0  0  0
    9.1680   -5.3595   26.6752 C   0  0  0  0  0  0  0  0  0  0  0  0
    8.9871   -5.5742   28.0206 O   0  0  0  0  0  0  0  0  0  0  0  0
    8.0706   -5.5644   25.6721 C   0  0  0  0  0  0  0  0  0  0  0  0
    8.5305   -5.0776   24.2889 C   0  0  0  0  0  0  0  0  0  0  0  0
  1  2  1  0
  2  3  1  0
  2  4  1  0
  4  5  2  0
  4  6  1  0
  6  7  2  0
  7  8  1  0
  8  9  2  0
  9 10  1  0
 10 11  2  0
 11 12  1  0
 11  6  1  0
 12 13  1  0
 13 14  1  0
 14 15  1  0
 15 16  1  0
 16 17  1  0
 16 18  1  0
 18 19  1  0
 19 13  1  0
M  END
>  <TransFSScore>  (253)
0.118335

>  <SuCOS_Score>  (253)
0.635799

>  <FeatureStein>  (253)
0.577357

>  <SCORE.norm>  (253)
-0.857897

>  <Max_SuCOS_Score>  (253)
0.635799

>  <Cum_SuCOS_Score>  (253)
5.175733

>  <TransFSScore_50nM>  (253)
0.015068

>  <TransFSScore_1uM>  (253)
0.257539

>  <TransFSScore_10nM>  (253)
0.062796

>  <TransFSScore_200nM>  (253)
0.137937

>  <TETHERED ATOMS>  (253)
17,16,15,14,13,12,11,19,18

$$$$
CN(C)C(=O)c1ccccc1CN1CCC(O)CC1
     RDKit          3D

 19 20  0  0  0  0  0  0  0  0999 V2000
    8.7902    0.3074   27.2320 C   0  0  0  0  0  0  0  0  0  0  0  0
    8.6548    0.4365   25.7449 N   0  0  0  0  0  0  0  0  0  0  0  0
    7.2374    0.7241   25.3399 C   0  0  0  0  0  0  0  0  0  0  0  0
    9.1804   -0.7533   25.0559 C   0  0  0  0  0  0  0  0  0  0  0  0
    8.4962   -1.7590   25.1501 O   0  0  0  0  0  0  0  0  0  0  0  0
   10.4576   -0.7596   24.2850 C   0  0  0  0  0  0  0  0  0  0  0  0
   11.3492    0.3148   24.4504 C   0  0  0  0  0  0  0  0  0  0  0  0
   12.5616    0.3380   23.7613 C   0  0  0  0  0  0  0  0  0  0  0  0
   12.8998   -0.7049   22.9078 C   0  0  0  0  0  0  0  0  0  0  0  0
   12.0321   -1.7829   22.7415 C   0  0  0  0  0  0  0  0  0  0  0  0
   10.8000   -1.8412   23.4267 C   0  0  0  0  0  0  0  0  0  0  0  0
    9.9183   -3.0347   23.1671 C   0  0  0  0  0  0  0  0  0  0  0  0
    9.6644   -3.9219   24.3041 N   0  0  0  0  0  0  0  0  0  0  0  0
   10.8209   -4.2731   25.1879 C   0  0  0  0  0  0  0  0  0  0  0  0
   10.5423   -5.5044   26.0202 C   0  0  0  0  0  0  0  0  0  0  0  0
    9.1437   -5.3061   26.4940 C   0  0  0  0  0  0  0  0  0  0  0  0
    8.8975   -5.5439   27.8250 O   0  0  0  0  0  0  0  0  0  0  0  0
    8.0990   -5.5011   25.4343 C   0  0  0  0  0  0  0  0  0  0  0  0
    8.6237   -4.9888   24.0838 C   0  0  0  0  0  0  0  0  0  0  0  0
  1  2  1  0
  2  3  1  0
  2  4  1  0
  4  5  2  0
  4  6  1  0
  6  7  2  0
  7  8  1  0
  8  9  2  0
  9 10  1  0
 10 11  2  0
 11 12  1  0
 11  6  1  0
 12 13  1  0
 13 14  1  0
 14 15  1  0
 15 16  1  0
 16 17  1  0
 16 18  1  0
 18 19  1  0
 19 13  1  0
M  END
>  <TransFSScore>  (254)
0.11501

>  <SuCOS_Score>  (254)
0.671975

>  <FeatureStein>  (254)
0.626237

>  <SCORE.norm>  (254)
-0.85058

>  <Max_SuCOS_Score>  (254)
0.671975

>  <Cum_SuCOS_Score>  (254)
5.358729

>  <TransFSScore_50nM>  (254)
0.012053

>  <TransFSScore_1uM>  (254)
0.272103

>  <TransFSScore_10nM>  (254)
0.05931

>  <TransFSScore_200nM>  (254)
0.116574

>  <TETHERED ATOMS>  (254)
17,16,15,14,13,12,11,19,18

$$$$
OCC1(O)CCN(CC2CCNC2)CC1
     RDKit          3D

 15 16  0  0  0  0  0  0  0  0999 V2000
    9.0384   -5.1282   27.7708 O   0  0  0  0  0  0  0  0  0  0  0  0
    8.5259   -5.0407   26.4356 C   0  0  0  0  0  0  0  0  0  0  0  0
    9.5308   -5.7401   25.4157 C   0  0  0  0  0  0  0  0  0  0  0  0
    9.5295   -6.9763   26.0460 O   0  0  0  0  0  0  0  0  0  0  0  0
   10.9235   -5.1694   25.4013 C   0  0  0  0  0  0  0  0  0  0  0  0
   10.7084   -3.6916   25.4239 C   0  0  0  0  0  0  0  0  0  0  0  0
    9.9574   -3.2438   24.2688 N   0  0  0  0  0  0  0  0  0  0  0  0
    9.5243   -1.8763   24.4032 C   0  0  0  0  0  0  0  0  0  0  0  0
   10.5711   -0.8631   23.9374 C   0  0  2  0  0  0  0  0  0  0  0  0
   11.3870   -1.1749   22.6781 C   0  0  0  0  0  0  0  0  0  0  0  0
   12.7563   -0.5618   22.9515 C   0  0  0  0  0  0  0  0  0  0  0  0
   12.5565    0.3418   24.0850 N   0  0  0  0  0  0  0  0  0  0  0  0
   11.5825   -0.3330   24.9479 C   0  0  0  0  0  0  0  0  0  0  0  0
    8.9614   -4.1042   23.6340 C   0  0  0  0  0  0  0  0  0  0  0  0
    8.9146   -5.5801   24.0581 C   0  0  0  0  0  0  0  0  0  0  0  0
  1  2  1  0
  2  3  1  0
  3  4  1  0
  3  5  1  0
  5  6  1  0
  6  7  1  0
  7  8  1  0
  7 14  1  0
  9  8  1  1
  9 10  1  0
 10 11  1  0
 11 12  1  0
 12 13  1  0
 13  9  1  0
 14 15  1  0
 15  3  1  0
M  END
>  <TransFSScore>  (255)
0.132501

>  <SuCOS_Score>  (255)
0.669213

>  <FeatureStein>  (255)
0.493951

>  <SCORE.norm>  (255)
-0.723638

>  <Max_SuCOS_Score>  (255)
0.669213

>  <Cum_SuCOS_Score>  (255)
4.082029

>  <TransFSScore_50nM>  (255)
0.016582

>  <TransFSScore_1uM>  (255)
0.038972

>  <TransFSScore_10nM>  (255)
0.0186

>  <TransFSScore_200nM>  (255)
0.45585

>  <TETHERED ATOMS>  (255)
4,3,5,6,7,8,9,14,15

$$$$
OCC1(O)CCN(Cc2ncc[nH]2)CC1
     RDKit          3D

 15 16  0  0  0  0  0  0  0  0999 V2000
   10.4211   -6.3824   26.1480 O   0  0  0  0  0  0  0  0  0  0  0  0
   10.6304   -4.9687   26.1400 C   0  0  0  0  0  0  0  0  0  0  0  0
    9.4859   -4.0655   26.8223 C   0  0  0  0  0  0  0  0  0  0  0  0
    9.4722   -4.8139   27.9792 O   0  0  0  0  0  0  0  0  0  0  0  0
    8.1612   -4.1338   26.1107 C   0  0  0  0  0  0  0  0  0  0  0  0
    8.4397   -3.9115   24.6541 C   0  0  0  0  0  0  0  0  0  0  0  0
    9.4499   -2.8425   24.4556 N   0  0  0  0  0  0  0  0  0  0  0  0
    9.6613   -2.3793   23.0823 C   0  0  0  0  0  0  0  0  0  0  0  0
   10.9504   -1.6858   22.8358 C   0  0  0  0  0  0  0  0  0  0  0  0
   11.7201   -1.1231   23.7479 N   0  0  0  0  0  0  0  0  0  0  0  0
   12.8152   -0.6435   23.0773 C   0  0  0  0  0  0  0  0  0  0  0  0
   12.7126   -0.9156   21.7361 C   0  0  0  0  0  0  0  0  0  0  0  0
   11.5316   -1.5891   21.5913 N   0  0  0  0  0  0  0  0  0  0  0  0
    9.6695   -1.8766   25.5619 C   0  0  0  0  0  0  0  0  0  0  0  0
    9.9772   -2.6315   26.8719 C   0  0  0  0  0  0  0  0  0  0  0  0
  1  2  1  0
  2  3  1  0
  3  4  1  0
  3  5  1  0
  5  6  1  0
  6  7  1  0
  7  8  1  0
  7 14  1  0
  8  9  1  0
  9 10  2  0
 10 11  1  0
 11 12  2  0
 12 13  1  0
 13  9  1  0
 14 15  1  0
 15  3  1  0
M  END
>  <TransFSScore>  (256)
0.14387

>  <SuCOS_Score>  (256)
0.686869

>  <FeatureStein>  (256)
0.506196

>  <SCORE.norm>  (256)
-0.809361

>  <Max_SuCOS_Score>  (256)
0.686869

>  <Cum_SuCOS_Score>  (256)
4.051529

>  <TransFSScore_50nM>  (256)
0.018757

>  <TransFSScore_1uM>  (256)
0.051277

>  <TransFSScore_10nM>  (256)
0.0247

>  <TransFSScore_200nM>  (256)
0.480746

>  <TETHERED ATOMS>  (256)
4,3,5,6,7,8,9,14,15

$$$$
OCC1(O)CCN(Cc2cncs2)CC1
     RDKit          3D

 15 16  0  0  0  0  0  0  0  0999 V2000
    9.1994   -4.9528   28.0356 O   0  0  0  0  0  0  0  0  0  0  0  0
    8.5965   -4.7643   26.7400 C   0  0  0  0  0  0  0  0  0  0  0  0
    9.3288   -5.7035   25.6741 C   0  0  0  0  0  0  0  0  0  0  0  0
    9.1933   -6.8950   26.3673 O   0  0  0  0  0  0  0  0  0  0  0  0
   10.7867   -5.3803   25.4736 C   0  0  0  0  0  0  0  0  0  0  0  0
   10.8291   -3.8860   25.4118 C   0  0  0  0  0  0  0  0  0  0  0  0
   10.0206   -3.3756   24.3182 N   0  0  0  0  0  0  0  0  0  0  0  0
    9.8335   -1.9482   24.4030 C   0  0  0  0  0  0  0  0  0  0  0  0
   11.1069   -1.2440   24.0588 C   0  0  0  0  0  0  0  0  0  0  0  0
   11.7152   -0.1786   24.6971 C   0  0  0  0  0  0  0  0  0  0  0  0
   12.8866    0.2802   24.1281 N   0  0  0  0  0  0  0  0  0  0  0  0
   13.1525   -0.4335   23.0567 C   0  0  0  0  0  0  0  0  0  0  0  0
   12.0258   -1.6646   22.6656 S   0  0  0  0  0  0  0  0  0  0  0  0
    8.8494   -4.0977   23.8333 C   0  0  0  0  0  0  0  0  0  0  0  0
    8.6089   -5.5190   24.3684 C   0  0  0  0  0  0  0  0  0  0  0  0
  1  2  1  0
  2  3  1  0
  3  4  1  0
  3  5  1  0
  5  6  1  0
  6  7  1  0
  7  8  1  0
  7 14  1  0
  8  9  1  0
  9 10  2  0
 10 11  1  0
 11 12  2  0
 12 13  1  0
 13  9  1  0
 14 15  1  0
 15  3  1  0
M  END
>  <TransFSScore>  (257)
0.103892

>  <SuCOS_Score>  (257)
0.741614

>  <FeatureStein>  (257)
0.540612

>  <SCORE.norm>  (257)
-0.883487

>  <Max_SuCOS_Score>  (257)
0.741614

>  <Cum_SuCOS_Score>  (257)
4.410479

>  <TransFSScore_50nM>  (257)
0.003235

>  <TransFSScore_1uM>  (257)
0.09254

>  <TransFSScore_10nM>  (257)
0.046582

>  <TransFSScore_200nM>  (257)
0.27321

>  <TETHERED ATOMS>  (257)
4,3,5,6,7,8,9,14,15

$$$$
OC1CCN(Cc2ccncc2F)CC1
     RDKit          3D

 15 16  0  0  0  0  0  0  0  0999 V2000
    9.8579   -6.9461   25.5514 O   0  0  0  0  0  0  0  0  0  0  0  0
    9.7606   -5.5909   25.3502 C   0  0  0  0  0  0  0  0  0  0  0  0
    8.4217   -5.0651   24.9589 C   0  0  0  0  0  0  0  0  0  0  0  0
    8.7233   -4.1450   23.7981 C   0  0  0  0  0  0  0  0  0  0  0  0
    9.9128   -3.2798   24.0732 N   0  0  0  0  0  0  0  0  0  0  0  0
   10.1049   -2.1069   23.2184 C   0  0  0  0  0  0  0  0  0  0  0  0
   11.4864   -1.5160   23.1834 C   0  0  0  0  0  0  0  0  0  0  0  0
   12.4677   -1.9677   22.2869 C   0  0  0  0  0  0  0  0  0  0  0  0
   13.7143   -1.3328   22.2298 C   0  0  0  0  0  0  0  0  0  0  0  0
   13.9732   -0.2911   23.0403 N   0  0  0  0  0  0  0  0  0  0  0  0
   13.0697    0.1704   23.9226 C   0  0  0  0  0  0  0  0  0  0  0  0
   11.8187   -0.4370   24.0060 C   0  0  0  0  0  0  0  0  0  0  0  0
   10.9241    0.0160   24.8907 F   0  0  0  0  0  0  0  0  0  0  0  0
   10.3946   -3.1867   25.4966 C   0  0  0  0  0  0  0  0  0  0  0  0
   10.6306   -4.5975   26.0652 C   0  0  0  0  0  0  0  0  0  0  0  0
  1  2  1  0
  2  3  1  0
  3  4  1  0
  4  5  1  0
  5  6  1  0
  5 14  1  0
  6  7  1  0
  7  8  2  0
  8  9  1  0
  9 10  2  0
 10 11  1  0
 11 12  2  0
 12 13  1  0
 12  7  1  0
 14 15  1  0
 15  2  1  0
M  END
>  <TransFSScore>  (258)
0.163284

>  <SuCOS_Score>  (258)
0.599147

>  <FeatureStein>  (258)
0.501175

>  <SCORE.norm>  (258)
-1.10373

>  <Max_SuCOS_Score>  (258)
0.599147

>  <Cum_SuCOS_Score>  (258)
4.500722

>  <TransFSScore_50nM>  (258)
0.041078

>  <TransFSScore_1uM>  (258)
0.064506

>  <TransFSScore_10nM>  (258)
0.01405

>  <TransFSScore_200nM>  (258)
0.533503

>  <TETHERED ATOMS>  (258)
1,2,3,4,5,6,7,14,15

$$$$
OC1CCN(Cc2ccncc2F)CC1
     RDKit          3D

 15 16  0  0  0  0  0  0  0  0999 V2000
    9.8311   -6.9668   25.5044 O   0  0  0  0  0  0  0  0  0  0  0  0
    9.7471   -5.6089   25.3153 C   0  0  0  0  0  0  0  0  0  0  0  0
    8.4093   -5.0643   24.9467 C   0  0  0  0  0  0  0  0  0  0  0  0
    8.7059   -4.1384   23.7893 C   0  0  0  0  0  0  0  0  0  0  0  0
    9.9091   -3.2895   24.0548 N   0  0  0  0  0  0  0  0  0  0  0  0
   10.1034   -2.1120   23.2069 C   0  0  0  0  0  0  0  0  0  0  0  0
   11.4830   -1.5158   23.1852 C   0  0  0  0  0  0  0  0  0  0  0  0
   12.4746   -1.9638   22.2982 C   0  0  0  0  0  0  0  0  0  0  0  0
   13.7192   -1.3241   22.2531 C   0  0  0  0  0  0  0  0  0  0  0  0
   13.9663   -0.2814   23.0661 N   0  0  0  0  0  0  0  0  0  0  0  0
   13.0526    0.1767   23.9396 C   0  0  0  0  0  0  0  0  0  0  0  0
   11.8032   -0.4355   24.0109 C   0  0  0  0  0  0  0  0  0  0  0  0
   10.8983    0.0140   24.8869 F   0  0  0  0  0  0  0  0  0  0  0  0
   10.4114   -3.2136   25.4722 C   0  0  0  0  0  0  0  0  0  0  0  0
   10.6384   -4.6317   26.0262 C   0  0  0  0  0  0  0  0  0  0  0  0
  1  2  1  0
  2  3  1  0
  3  4  1  0
  4  5  1  0
  5  6  1  0
  5 14  1  0
  6  7  1  0
  7  8  2  0
  8  9  1  0
  9 10  2  0
 10 11  1  0
 11 12  2  0
 12 13  1  0
 12  7  1  0
 14 15  1  0
 15  2  1  0
M  END
>  <TransFSScore>  (259)
0.164267

>  <SuCOS_Score>  (259)
0.594678

>  <FeatureStein>  (259)
0.497588

>  <SCORE.norm>  (259)
-1.10292

>  <Max_SuCOS_Score>  (259)
0.594678

>  <Cum_SuCOS_Score>  (259)
4.493933

>  <TransFSScore_50nM>  (259)
0.040033

>  <TransFSScore_1uM>  (259)
0.063287

>  <TransFSScore_10nM>  (259)
0.013883

>  <TransFSScore_200nM>  (259)
0.539865

>  <TETHERED ATOMS>  (259)
1,2,3,4,5,6,7,14,15

$$$$
OC1CCN(Cc2ccncc2F)CC1
     RDKit          3D

 15 16  0  0  0  0  0  0  0  0999 V2000
    9.8972   -6.9300   25.6076 O   0  0  0  0  0  0  0  0  0  0  0  0
    9.7936   -5.5768   25.3965 C   0  0  0  0  0  0  0  0  0  0  0  0
    8.4520   -5.0599   25.0027 C   0  0  0  0  0  0  0  0  0  0  0  0
    8.7483   -4.1471   23.8348 C   0  0  0  0  0  0  0  0  0  0  0  0
    9.9342   -3.2746   24.1021 N   0  0  0  0  0  0  0  0  0  0  0  0
   10.1202   -2.1072   23.2385 C   0  0  0  0  0  0  0  0  0  0  0  0
   11.5015   -1.5170   23.1894 C   0  0  0  0  0  0  0  0  0  0  0  0
   12.4817   -1.9873   22.3012 C   0  0  0  0  0  0  0  0  0  0  0  0
   13.7282   -1.3535   22.2292 C   0  0  0  0  0  0  0  0  0  0  0  0
   13.9879   -0.2950   23.0174 N   0  0  0  0  0  0  0  0  0  0  0  0
   13.0855    0.1848   23.8910 C   0  0  0  0  0  0  0  0  0  0  0  0
   11.8348   -0.4209   23.9887 C   0  0  0  0  0  0  0  0  0  0  0  0
   10.9412    0.0503   24.8649 F   0  0  0  0  0  0  0  0  0  0  0  0
   10.4171   -3.1688   25.5243 C   0  0  0  0  0  0  0  0  0  0  0  0
   10.6599   -4.5743   26.1031 C   0  0  0  0  0  0  0  0  0  0  0  0
  1  2  1  0
  2  3  1  0
  3  4  1  0
  4  5  1  0
  5  6  1  0
  5 14  1  0
  6  7  1  0
  7  8  2  0
  8  9  1  0
  9 10  2  0
 10 11  1  0
 11 12  2  0
 12 13  1  0
 12  7  1  0
 14 15  1  0
 15  2  1  0
M  END
>  <TransFSScore>  (260)
0.159683

>  <SuCOS_Score>  (260)
0.598416

>  <FeatureStein>  (260)
0.503308

>  <SCORE.norm>  (260)
-1.10015

>  <Max_SuCOS_Score>  (260)
0.598416

>  <Cum_SuCOS_Score>  (260)
4.492881

>  <TransFSScore_50nM>  (260)
0.041535

>  <TransFSScore_1uM>  (260)
0.066021

>  <TransFSScore_10nM>  (260)
0.014202

>  <TransFSScore_200nM>  (260)
0.516973

>  <TETHERED ATOMS>  (260)
1,2,3,4,5,6,7,14,15

$$$$
OC1CCN(Cc2ccncc2F)CC1
     RDKit          3D

 15 16  0  0  0  0  0  0  0  0999 V2000
    9.8448   -6.9316   25.4541 O   0  0  0  0  0  0  0  0  0  0  0  0
    9.7357   -5.5743   25.2742 C   0  0  0  0  0  0  0  0  0  0  0  0
    8.3990   -5.0571   24.8642 C   0  0  0  0  0  0  0  0  0  0  0  0
    8.7136   -4.1136   23.7259 C   0  0  0  0  0  0  0  0  0  0  0  0
    9.8868   -3.2398   24.0404 N   0  0  0  0  0  0  0  0  0  0  0  0
   10.0827   -2.0500   23.2101 C   0  0  0  0  0  0  0  0  0  0  0  0
   11.4731   -1.4814   23.1624 C   0  0  0  0  0  0  0  0  0  0  0  0
   12.4324   -1.9344   22.2430 C   0  0  0  0  0  0  0  0  0  0  0  0
   13.6884   -1.3191   22.1761 C   0  0  0  0  0  0  0  0  0  0  0  0
   13.9774   -0.2953   22.9991 N   0  0  0  0  0  0  0  0  0  0  0  0
   13.0958    0.1665   23.9032 C   0  0  0  0  0  0  0  0  0  0  0  0
   11.8364   -0.4216   23.9968 C   0  0  0  0  0  0  0  0  0  0  0  0
   10.9635    0.0314   24.9030 F   0  0  0  0  0  0  0  0  0  0  0  0
   10.3381   -3.1659   25.4749 C   0  0  0  0  0  0  0  0  0  0  0  0
   10.5789   -4.5836   26.0241 C   0  0  0  0  0  0  0  0  0  0  0  0
  1  2  1  0
  2  3  1  0
  3  4  1  0
  4  5  1  0
  5  6  1  0
  5 14  1  0
  6  7  1  0
  7  8  2  0
  8  9  1  0
  9 10  2  0
 10 11  1  0
 11 12  2  0
 12 13  1  0
 12  7  1  0
 14 15  1  0
 15  2  1  0
M  END
>  <TransFSScore>  (261)
0.167919

>  <SuCOS_Score>  (261)
0.600325

>  <FeatureStein>  (261)
0.509247

>  <SCORE.norm>  (261)
-1.09946

>  <Max_SuCOS_Score>  (261)
0.600325

>  <Cum_SuCOS_Score>  (261)
4.537328

>  <TransFSScore_50nM>  (261)
0.03591

>  <TransFSScore_1uM>  (261)
0.062727

>  <TransFSScore_10nM>  (261)
0.014008

>  <TransFSScore_200nM>  (261)
0.559031

>  <TETHERED ATOMS>  (261)
1,2,3,4,5,6,7,14,15

$$$$
OC1CCN(Cc2ccncc2F)CC1
     RDKit          3D

 15 16  0  0  0  0  0  0  0  0999 V2000
    9.8380   -7.0159   25.5913 O   0  0  0  0  0  0  0  0  0  0  0  0
    9.7886   -5.6542   25.4181 C   0  0  0  0  0  0  0  0  0  0  0  0
    8.4470   -5.0592   25.1573 C   0  0  0  0  0  0  0  0  0  0  0  0
    8.6869   -4.1337   23.9864 C   0  0  0  0  0  0  0  0  0  0  0  0
    9.9368   -3.3304   24.1638 N   0  0  0  0  0  0  0  0  0  0  0  0
   10.1076   -2.1527   23.3111 C   0  0  0  0  0  0  0  0  0  0  0  0
   11.4818   -1.5458   23.2655 C   0  0  0  0  0  0  0  0  0  0  0  0
   12.4695   -2.0033   22.3789 C   0  0  0  0  0  0  0  0  0  0  0  0
   13.7084   -1.3544   22.3103 C   0  0  0  0  0  0  0  0  0  0  0  0
   13.9536   -0.2937   23.1001 N   0  0  0  0  0  0  0  0  0  0  0  0
   13.0436    0.1742   23.9723 C   0  0  0  0  0  0  0  0  0  0  0  0
   11.8001   -0.4467   24.0666 C   0  0  0  0  0  0  0  0  0  0  0  0
   10.8990    0.0129   24.9414 F   0  0  0  0  0  0  0  0  0  0  0  0
   10.5490   -3.2854   25.5387 C   0  0  0  0  0  0  0  0  0  0  0  0
   10.7666   -4.7157   26.0644 C   0  0  0  0  0  0  0  0  0  0  0  0
  1  2  1  0
  2  3  1  0
  3  4  1  0
  4  5  1  0
  5  6  1  0
  5 14  1  0
  6  7  1  0
  7  8  2  0
  8  9  1  0
  9 10  2  0
 10 11  1  0
 11 12  2  0
 12 13  1  0
 12  7  1  0
 14 15  1  0
 15  2  1  0
M  END
>  <TransFSScore>  (262)
0.150701

>  <SuCOS_Score>  (262)
0.600133

>  <FeatureStein>  (262)
0.493195

>  <SCORE.norm>  (262)
-1.09822

>  <Max_SuCOS_Score>  (262)
0.600133

>  <Cum_SuCOS_Score>  (262)
4.436649

>  <TransFSScore_50nM>  (262)
0.042023

>  <TransFSScore_1uM>  (262)
0.061985

>  <TransFSScore_10nM>  (262)
0.013709

>  <TransFSScore_200nM>  (262)
0.485086

>  <TETHERED ATOMS>  (262)
1,2,3,4,5,6,7,14,15

$$$$
OC1CCN(Cc2ccncc2F)CC1
     RDKit          3D

 15 16  0  0  0  0  0  0  0  0999 V2000
    9.8067   -6.9932   25.5251 O   0  0  0  0  0  0  0  0  0  0  0  0
    9.7533   -5.6304   25.3622 C   0  0  0  0  0  0  0  0  0  0  0  0
    8.4139   -5.0404   25.0794 C   0  0  0  0  0  0  0  0  0  0  0  0
    8.6722   -4.1038   23.9213 C   0  0  0  0  0  0  0  0  0  0  0  0
    9.9138   -3.2953   24.1306 N   0  0  0  0  0  0  0  0  0  0  0  0
   10.0952   -2.1096   23.2913 C   0  0  0  0  0  0  0  0  0  0  0  0
   11.4777   -1.5220   23.2426 C   0  0  0  0  0  0  0  0  0  0  0  0
   12.4493   -1.9768   22.3371 C   0  0  0  0  0  0  0  0  0  0  0  0
   13.6968   -1.3449   22.2676 C   0  0  0  0  0  0  0  0  0  0  0  0
   13.9659   -0.3031   23.0747 N   0  0  0  0  0  0  0  0  0  0  0  0
   13.0720    0.1613   23.9652 C   0  0  0  0  0  0  0  0  0  0  0  0
   11.8204   -0.4431   24.0610 C   0  0  0  0  0  0  0  0  0  0  0  0
   10.9354    0.0127   24.9538 F   0  0  0  0  0  0  0  0  0  0  0  0
   10.4978   -3.2586   25.5179 C   0  0  0  0  0  0  0  0  0  0  0  0
   10.7128   -4.6921   26.0359 C   0  0  0  0  0  0  0  0  0  0  0  0
  1  2  1  0
  2  3  1  0
  3  4  1  0
  4  5  1  0
  5  6  1  0
  5 14  1  0
  6  7  1  0
  7  8  2  0
  8  9  1  0
  9 10  2  0
 10 11  1  0
 11 12  2  0
 12 13  1  0
 12  7  1  0
 14 15  1  0
 15  2  1  0
M  END
>  <TransFSScore>  (263)
0.155778

>  <SuCOS_Score>  (263)
0.605296

>  <FeatureStein>  (263)
0.502324

>  <SCORE.norm>  (263)
-1.09814

>  <Max_SuCOS_Score>  (263)
0.605296

>  <Cum_SuCOS_Score>  (263)
4.469696

>  <TransFSScore_50nM>  (263)
0.041665

>  <TransFSScore_1uM>  (263)
0.062175

>  <TransFSScore_10nM>  (263)
0.014198

>  <TransFSScore_200nM>  (263)
0.505075

>  <TETHERED ATOMS>  (263)
1,2,3,4,5,6,7,14,15

$$$$
OC1CCN(Cc2ccncc2F)CC1
     RDKit          3D

 15 16  0  0  0  0  0  0  0  0999 V2000
    9.8131   -6.9770   25.3899 O   0  0  0  0  0  0  0  0  0  0  0  0
    9.7439   -5.6112   25.2624 C   0  0  0  0  0  0  0  0  0  0  0  0
    8.4027   -5.0320   24.9662 C   0  0  0  0  0  0  0  0  0  0  0  0
    8.6726   -4.0610   23.8395 C   0  0  0  0  0  0  0  0  0  0  0  0
    9.8978   -3.2417   24.0974 N   0  0  0  0  0  0  0  0  0  0  0  0
   10.0805   -2.0314   23.2943 C   0  0  0  0  0  0  0  0  0  0  0  0
   11.4630   -1.4425   23.2655 C   0  0  0  0  0  0  0  0  0  0  0  0
   12.4452   -1.8904   22.3681 C   0  0  0  0  0  0  0  0  0  0  0  0
   13.6930   -1.2570   22.3173 C   0  0  0  0  0  0  0  0  0  0  0  0
   13.9519   -0.2207   23.1346 N   0  0  0  0  0  0  0  0  0  0  0  0
   13.0475    0.2369   24.0179 C   0  0  0  0  0  0  0  0  0  0  0  0
   11.7954   -0.3690   24.0952 C   0  0  0  0  0  0  0  0  0  0  0  0
   10.8998    0.0800   24.9809 F   0  0  0  0  0  0  0  0  0  0  0  0
   10.4514   -3.2346   25.4976 C   0  0  0  0  0  0  0  0  0  0  0  0
   10.6754   -4.6785   25.9818 C   0  0  0  0  0  0  0  0  0  0  0  0
  1  2  1  0
  2  3  1  0
  3  4  1  0
  4  5  1  0
  5  6  1  0
  5 14  1  0
  6  7  1  0
  7  8  2  0
  8  9  1  0
  9 10  2  0
 10 11  1  0
 11 12  2  0
 12 13  1  0
 12  7  1  0
 14 15  1  0
 15  2  1  0
M  END
>  <TransFSScore>  (264)
0.158292

>  <SuCOS_Score>  (264)
0.610702

>  <FeatureStein>  (264)
0.515108

>  <SCORE.norm>  (264)
-1.0973

>  <Max_SuCOS_Score>  (264)
0.610702

>  <Cum_SuCOS_Score>  (264)
4.531208

>  <TransFSScore_50nM>  (264)
0.032295

>  <TransFSScore_1uM>  (264)
0.058972

>  <TransFSScore_10nM>  (264)
0.015229

>  <TransFSScore_200nM>  (264)
0.526671

>  <TETHERED ATOMS>  (264)
1,2,3,4,5,6,7,14,15

$$$$
OC1CCN(Cc2ccncc2F)CC1
     RDKit          3D

 15 16  0  0  0  0  0  0  0  0999 V2000
    9.8538   -6.8501   25.5881 O   0  0  0  0  0  0  0  0  0  0  0  0
    9.7117   -5.5087   25.3289 C   0  0  0  0  0  0  0  0  0  0  0  0
    8.3955   -5.0658   24.7872 C   0  0  0  0  0  0  0  0  0  0  0  0
    8.7683   -4.1681   23.6295 C   0  0  0  0  0  0  0  0  0  0  0  0
    9.8803   -3.2341   23.9901 N   0  0  0  0  0  0  0  0  0  0  0  0
   10.1010   -2.0801   23.1166 C   0  0  0  0  0  0  0  0  0  0  0  0
   11.4811   -1.4849   23.1200 C   0  0  0  0  0  0  0  0  0  0  0  0
   12.4730   -1.8979   22.2165 C   0  0  0  0  0  0  0  0  0  0  0  0
   13.7183   -1.2581   22.1982 C   0  0  0  0  0  0  0  0  0  0  0  0
   13.9657   -0.2492   23.0526 N   0  0  0  0  0  0  0  0  0  0  0  0
   13.0517    0.1743   23.9431 C   0  0  0  0  0  0  0  0  0  0  0  0
   11.8017   -0.4390   23.9887 C   0  0  0  0  0  0  0  0  0  0  0  0
   10.8965   -0.0242   24.8814 F   0  0  0  0  0  0  0  0  0  0  0  0
   10.2102   -3.0714   25.4501 C   0  0  0  0  0  0  0  0  0  0  0  0
   10.4554   -4.4496   26.0905 C   0  0  0  0  0  0  0  0  0  0  0  0
  1  2  1  0
  2  3  1  0
  3  4  1  0
  4  5  1  0
  5  6  1  0
  5 14  1  0
  6  7  1  0
  7  8  2  0
  8  9  1  0
  9 10  2  0
 10 11  1  0
 11 12  2  0
 12 13  1  0
 12  7  1  0
 14 15  1  0
 15  2  1  0
M  END
>  <TransFSScore>  (265)
0.166916

>  <SuCOS_Score>  (265)
0.591087

>  <FeatureStein>  (265)
0.505416

>  <SCORE.norm>  (265)
-1.04586

>  <Max_SuCOS_Score>  (265)
0.591087

>  <Cum_SuCOS_Score>  (265)
4.547772

>  <TransFSScore_50nM>  (265)
0.032524

>  <TransFSScore_1uM>  (265)
0.062719

>  <TransFSScore_10nM>  (265)
0.015452

>  <TransFSScore_200nM>  (265)
0.556971

>  <TETHERED ATOMS>  (265)
1,2,3,4,5,6,7,14,15

$$$$
OC1CCN(Cc2ccncc2F)CC1
     RDKit          3D

 15 16  0  0  0  0  0  0  0  0999 V2000
    9.8556   -6.7991   25.5613 O   0  0  0  0  0  0  0  0  0  0  0  0
    9.7080   -5.4606   25.2908 C   0  0  0  0  0  0  0  0  0  0  0  0
    8.4001   -5.0319   24.7185 C   0  0  0  0  0  0  0  0  0  0  0  0
    8.7901   -4.1381   23.5635 C   0  0  0  0  0  0  0  0  0  0  0  0
    9.8864   -3.1927   23.9417 N   0  0  0  0  0  0  0  0  0  0  0  0
   10.1162   -2.0423   23.0660 C   0  0  0  0  0  0  0  0  0  0  0  0
   11.4982   -1.4516   23.0758 C   0  0  0  0  0  0  0  0  0  0  0  0
   12.4980   -1.8801   22.1884 C   0  0  0  0  0  0  0  0  0  0  0  0
   13.7457   -1.2447   22.1744 C   0  0  0  0  0  0  0  0  0  0  0  0
   13.9876   -0.2251   23.0176 N   0  0  0  0  0  0  0  0  0  0  0  0
   13.0658    0.2134   23.8927 C   0  0  0  0  0  0  0  0  0  0  0  0
   11.8133   -0.3951   23.9335 C   0  0  0  0  0  0  0  0  0  0  0  0
   10.9003    0.0348   24.8110 F   0  0  0  0  0  0  0  0  0  0  0  0
   10.1838   -3.0185   25.4074 C   0  0  0  0  0  0  0  0  0  0  0  0
   10.4267   -4.3907   26.0614 C   0  0  0  0  0  0  0  0  0  0  0  0
  1  2  1  0
  2  3  1  0
  3  4  1  0
  4  5  1  0
  5  6  1  0
  5 14  1  0
  6  7  1  0
  7  8  2  0
  8  9  1  0
  9 10  2  0
 10 11  1  0
 11 12  2  0
 12 13  1  0
 12  7  1  0
 14 15  1  0
 15  2  1  0
M  END
>  <TransFSScore>  (266)
0.163268

>  <SuCOS_Score>  (266)
0.585402

>  <FeatureStein>  (266)
0.507036

>  <SCORE.norm>  (266)
-1.04318

>  <Max_SuCOS_Score>  (266)
0.585402

>  <Cum_SuCOS_Score>  (266)
4.58442

>  <TransFSScore_50nM>  (266)
0.027674

>  <TransFSScore_1uM>  (266)
0.05894

>  <TransFSScore_10nM>  (266)
0.014899

>  <TransFSScore_200nM>  (266)
0.55156

>  <TETHERED ATOMS>  (266)
1,2,3,4,5,6,7,14,15

$$$$
OC1CCN(Cc2ccncc2F)CC1
     RDKit          3D

 15 16  0  0  0  0  0  0  0  0999 V2000
    9.8545   -6.6873   25.4567 O   0  0  0  0  0  0  0  0  0  0  0  0
    9.7894   -5.3381   25.1999 C   0  0  0  0  0  0  0  0  0  0  0  0
    8.4689   -4.7940   24.7742 C   0  0  0  0  0  0  0  0  0  0  0  0
    8.8056   -3.9020   23.5990 C   0  0  0  0  0  0  0  0  0  0  0  0
   10.0242   -3.0721   23.8695 N   0  0  0  0  0  0  0  0  0  0  0  0
   10.2471   -1.9143   22.9938 C   0  0  0  0  0  0  0  0  0  0  0  0
   11.6198   -1.3337   23.0085 C   0  0  0  0  0  0  0  0  0  0  0  0
   12.6124   -1.7607   22.1162 C   0  0  0  0  0  0  0  0  0  0  0  0
   13.8691   -1.1748   22.1895 C   0  0  0  0  0  0  0  0  0  0  0  0
   14.1923   -0.2138   23.0809 N   0  0  0  0  0  0  0  0  0  0  0  0
   13.2234    0.1986   23.9272 C   0  0  0  0  0  0  0  0  0  0  0  0
   11.9465   -0.3300   23.9220 C   0  0  0  0  0  0  0  0  0  0  0  0
   11.0324    0.0879   24.8069 F   0  0  0  0  0  0  0  0  0  0  0  0
   10.4764   -2.9465   25.2925 C   0  0  0  0  0  0  0  0  0  0  0  0
   10.6676   -4.3446   25.9059 C   0  0  0  0  0  0  0  0  0  0  0  0
  1  2  1  0
  2  3  1  0
  3  4  1  0
  4  5  1  0
  5  6  1  0
  5 14  1  0
  6  7  1  0
  7  8  2  0
  8  9  1  0
  9 10  2  0
 10 11  1  0
 11 12  2  0
 12 13  1  0
 12  7  1  0
 14 15  1  0
 15  2  1  0
M  END
>  <TransFSScore>  (267)
0.141871

>  <SuCOS_Score>  (267)
0.563629

>  <FeatureStein>  (267)
0.51382

>  <SCORE.norm>  (267)
-0.920635

>  <Max_SuCOS_Score>  (267)
0.563629

>  <Cum_SuCOS_Score>  (267)
4.550659

>  <TransFSScore_50nM>  (267)
0.027115

>  <TransFSScore_1uM>  (267)
0.043502

>  <TransFSScore_10nM>  (267)
0.014628

>  <TransFSScore_200nM>  (267)
0.482239

>  <TETHERED ATOMS>  (267)
1,2,3,4,5,6,7,14,15

$$$$
OC1CCN(Cc2cncc(F)c2)CC1
     RDKit          3D

 15 16  0  0  0  0  0  0  0  0999 V2000
    8.7255   -6.1782   27.0585 O   0  0  0  0  0  0  0  0  0  0  0  0
    9.3529   -6.2155   25.7819 C   0  0  0  0  0  0  0  0  0  0  0  0
   10.6289   -5.4278   25.9304 C   0  0  0  0  0  0  0  0  0  0  0  0
   10.2947   -3.9606   25.8705 C   0  0  0  0  0  0  0  0  0  0  0  0
    9.9501   -3.6602   24.4432 N   0  0  0  0  0  0  0  0  0  0  0  0
    9.7096   -2.2289   24.2127 C   0  0  0  0  0  0  0  0  0  0  0  0
   10.9776   -1.5379   23.7570 C   0  0  0  0  0  0  0  0  0  0  0  0
   11.5861   -0.5261   24.5209 C   0  0  0  0  0  0  0  0  0  0  0  0
   12.7587    0.0167   24.1302 N   0  0  0  0  0  0  0  0  0  0  0  0
   13.4004   -0.3727   23.0142 C   0  0  0  0  0  0  0  0  0  0  0  0
   12.8514   -1.3735   22.2313 C   0  0  0  0  0  0  0  0  0  0  0  0
   13.4796   -1.7799   21.1259 F   0  0  0  0  0  0  0  0  0  0  0  0
   11.6491   -1.9658   22.6011 C   0  0  0  0  0  0  0  0  0  0  0  0
    8.9279   -4.5765   23.8312 C   0  0  0  0  0  0  0  0  0  0  0  0
    8.3743   -5.6169   24.7868 C   0  0  0  0  0  0  0  0  0  0  0  0
  1  2  1  0
  2  3  1  0
  3  4  1  0
  4  5  1  0
  5  6  1  0
  5 14  1  0
  6  7  1  0
  7  8  2  0
  8  9  1  0
  9 10  2  0
 10 11  1  0
 11 12  1  0
 11 13  2  0
 13  7  1  0
 14 15  1  0
 15  2  1  0
M  END
>  <TransFSScore>  (268)
0.106485

>  <SuCOS_Score>  (268)
0.613481

>  <FeatureStein>  (268)
0.522249

>  <SCORE.norm>  (268)
-0.784906

>  <Max_SuCOS_Score>  (268)
0.613481

>  <Cum_SuCOS_Score>  (268)
4.522579

>  <TransFSScore_50nM>  (268)
0.018404

>  <TransFSScore_1uM>  (268)
0.070044

>  <TransFSScore_10nM>  (268)
0.011991

>  <TransFSScore_200nM>  (268)
0.325503

>  <TETHERED ATOMS>  (268)
1,2,3,4,5,6,7,14,15

$$$$
